Program Version,EnergyPlus, Version 23.2.0-7636e6b3e9, YMD=2025.01.19 15:46
! This file shows details about the branches, nodes, and other
! elements of the flow connections.
! This file is intended for use in "debugging" potential problems
! that may also be detected by the program, but may be more easily
! identified by "eye".
! This file is also intended to support software which draws a
! schematic diagram of the HVAC system.
! ===============================================================
! #Nodes,<Number of Unique Nodes>
 #Nodes,96
! <Node>,<NodeNumber>,<Node Name>,<Node Fluid Type>,<# Times Node Referenced After Definition>
 Node,1,AIR TERMINAL SINGLE DUCT CONSTANT VOLUME NO REHEAT 4 OUTLET AIR NODE,Air,4
 Node,2,ALL_ST=LOBBY - ELEVATOR_FL=BUILDING STORY 1_SCH=C RETURN AIR NODE,Air,2
 Node,3,AIR TERMINAL SINGLE DUCT CONSTANT VOLUME NO REHEAT 2 OUTLET AIR NODE,Air,4
 Node,4,ALL_ST=RETAIL - SALES_FL=BUILDING STORY 1_SCH=C RETURN AIR NODE,Air,2
 Node,5,AIR TERMINAL SINGLE DUCT CONSTANT VOLUME NO REHEAT 3 OUTLET AIR NODE,Air,4
 Node,6,ALL_ST=RETAIL - SALES_FL=BUILDING STORY 1_SCH=C 1 RETURN AIR NODE,Air,2
 Node,7,AIR TERMINAL SINGLE DUCT CONSTANT VOLUME NO REHEAT 5 OUTLET AIR NODE,Air,4
 Node,8,ALL_ST=RETAIL - SALES_FL=BUILDING STORY 1_SCH=C 2 RETURN AIR NODE,Air,2
 Node,9,AIR TERMINAL SINGLE DUCT CONSTANT VOLUME NO REHEAT 1 OUTLET AIR NODE,Air,4
 Node,10,SYS_4_ZONE_EXHAUST_FAN INLET AIR NODE,Air,2
 Node,11,ALL_ST=STORAGE AREA_FL=BUILDING STORY 1_SCH=E RETURN AIR NODE,Air,2
 Node,12,SYS_3|MIXED|SHR>NONE|SC>DX|SH>C-E|SSF>CV|ZH>B-E|ZC>NONE|SRF>NONE| SUPPLY OUTLET NODE,Air,12
 Node,13,SYS_3|MIXED|SHR>NONE|SC>DX|SH>C-E|SSF>CV|ZH>B-E|ZC>NONE|SRF>NONE| DEMAND INLET NODE,Air,3
 Node,14,SYS_3|MIXED|SHR>NONE|SC>DX|SH>C-E|SSF>CV|ZH>B-E|ZC>NONE|SRF>NONE| 1 SUPPLY OUTLET NODE,Air,12
 Node,15,SYS_3|MIXED|SHR>NONE|SC>DX|SH>C-E|SSF>CV|ZH>B-E|ZC>NONE|SRF>NONE| 1 DEMAND INLET NODE,Air,3
 Node,16,SYS_3|MIXED|SHR>NONE|SC>DX|SH>C-E|SSF>CV|ZH>B-E|ZC>NONE|SRF>NONE| 2 SUPPLY OUTLET NODE,Air,12
 Node,17,SYS_3|MIXED|SHR>NONE|SC>DX|SH>C-E|SSF>CV|ZH>B-E|ZC>NONE|SRF>NONE| 2 DEMAND INLET NODE,Air,3
 Node,18,SYS_3|MIXED|SHR>NONE|SC>DX|SH>C-E|SSF>CV|ZH>B-E|ZC>NONE|SRF>NONE| 3 SUPPLY OUTLET NODE,Air,12
 Node,19,SYS_3|MIXED|SHR>NONE|SC>DX|SH>C-E|SSF>CV|ZH>B-E|ZC>NONE|SRF>NONE| 3 DEMAND INLET NODE,Air,3
 Node,20,SYS_4|MIXED|SHR>NONE|SC>DX|SH>C-E|SSF>CV|ZH>B-E|ZC>NONE|SRF>NONE| SUPPLY OUTLET NODE,Air,10
 Node,21,SYS_4|MIXED|SHR>NONE|SC>DX|SH>C-E|SSF>CV|ZH>B-E|ZC>NONE|SRF>NONE| DEMAND INLET NODE,Air,3
 Node,22,SYS_3|MIXED|SHR>NONE|SC>DX|SH>C-E|SSF>CV|ZH>B-E|ZC>NONE|SRF>NONE| SUPPLY INLET NODE,Air,2
 Node,23,SYS3 RETURN FAN OUTLET AIR NODE,Air,5
 Node,24,SYS_3|MIXED|SHR>NONE|SC>DX|SH>C-E|SSF>CV|ZH>B-E|ZC>NONE|SRF>NONE| MIXED AIR NODE,Air,6
 Node,25,COILCOOLINGDXSINGLESPEED_DX 1 58KBTU/HR 7.7726EER OUTLET AIR NODE,Air,6
 Node,26,COIL HEATING ELECTRIC 2 OUTLET AIR NODE,Air,9
 Node,27,SYS_3|MIXED|SHR>NONE|SC>DX|SH>C-E|SSF>CV|ZH>B-E|ZC>NONE|SRF>NONE| 1 SUPPLY INLET NODE,Air,2
 Node,28,SYS3 RETURN FAN 1 OUTLET AIR NODE,Air,5
 Node,29,SYS_3|MIXED|SHR>NONE|SC>DX|SH>C-E|SSF>CV|ZH>B-E|ZC>NONE|SRF>NONE| 1 MIXED AIR NODE,Air,6
 Node,30,COILCOOLINGDXSINGLESPEED_DX 2 58KBTU/HR 7.7726EER OUTLET AIR NODE,Air,6
 Node,31,COIL HEATING ELECTRIC 3 OUTLET AIR NODE,Air,9
 Node,32,SYS_3|MIXED|SHR>NONE|SC>DX|SH>C-E|SSF>CV|ZH>B-E|ZC>NONE|SRF>NONE| 2 SUPPLY INLET NODE,Air,2
 Node,33,SYS3 RETURN FAN 2 OUTLET AIR NODE,Air,5
 Node,34,SYS_3|MIXED|SHR>NONE|SC>DX|SH>C-E|SSF>CV|ZH>B-E|ZC>NONE|SRF>NONE| 2 MIXED AIR NODE,Air,6
 Node,35,COILCOOLINGDXSINGLESPEED_DX 3 10KBTU/HR 7.7726EER OUTLET AIR NODE,Air,6
 Node,36,COIL HEATING ELECTRIC 4 OUTLET AIR NODE,Air,9
 Node,37,SYS_3|MIXED|SHR>NONE|SC>DX|SH>C-E|SSF>CV|ZH>B-E|ZC>NONE|SRF>NONE| 3 SUPPLY INLET NODE,Air,2
 Node,38,SYS3 RETURN FAN 3 OUTLET AIR NODE,Air,5
 Node,39,SYS_3|MIXED|SHR>NONE|SC>DX|SH>C-E|SSF>CV|ZH>B-E|ZC>NONE|SRF>NONE| 3 MIXED AIR NODE,Air,6
 Node,40,COILCOOLINGDXSINGLESPEED_DX 4 235KBTU/HR 7.7726EER OUTLET AIR NODE,Air,6
 Node,41,COIL HEATING ELECTRIC 5 OUTLET AIR NODE,Air,9
 Node,42,SYS_4|MIXED|SHR>NONE|SC>DX|SH>C-E|SSF>CV|ZH>B-E|ZC>NONE|SRF>NONE| SUPPLY INLET NODE,Air,3
 Node,43,SYS_4|MIXED|SHR>NONE|SC>DX|SH>C-E|SSF>CV|ZH>B-E|ZC>NONE|SRF>NONE| MIXED AIR NODE,Air,6
 Node,44,COILCOOLINGDXSINGLESPEED_DX 18KBTU/HR 7.7726EER OUTLET AIR NODE,Air,6
 Node,45,COIL HEATING ELECTRIC 1 OUTLET AIR NODE,Air,8
 Node,46,MAIN SERVICE WATER LOOP SUPPLY INLET NODE,Water,2
 Node,47,MAIN SERVICE WATER LOOP CIRCULATOR PUMP OUTLET WATER NODE,Water,1
 Node,48,17GAL ELECTRICITY WATER HEATER - 11KBTU/HR 1 THERM EFF SUPPLY INLET WATER NODE,Water,1
 Node,49,17GAL ELECTRICITY WATER HEATER - 11KBTU/HR 1 THERM EFF SUPPLY OUTLET WATER NODE,Water,1
 Node,50,PIPE ADIABATIC 1 INLET WATER NODE,Water,1
 Node,51,PIPE ADIABATIC 1 OUTLET WATER NODE,Water,1
 Node,52,PIPE ADIABATIC 3 INLET WATER NODE,Water,1
 Node,53,MAIN SERVICE WATER LOOP SUPPLY OUTLET NODE,Water,4
 Node,54,MAIN SERVICE WATER LOOP DEMAND INLET NODE,Water,2
 Node,55,MAIN SERVICE WATER LOOP DEMAND INLET PIPE NODE,Water,1
 Node,56,PIPE ADIABATIC 2 INLET WATER NODE,Water,1
 Node,57,PIPE ADIABATIC 2 OUTLET WATER NODE,Water,1
 Node,58,BACK_SPACE WUC 0.1GPM 140F INLET WATER NODE,Water,1
 Node,59,BACK_SPACE WUC 0.1GPM 140F OUTLET WATER NODE,Water,1
 Node,60,CORE_RETAIL WUC 0.18GPM 140F INLET WATER NODE,Water,1
 Node,61,CORE_RETAIL WUC 0.18GPM 140F OUTLET WATER NODE,Water,1
 Node,62,FRONT_RETAIL WUC 0.02GPM 140F INLET WATER NODE,Water,1
 Node,63,FRONT_RETAIL WUC 0.02GPM 140F OUTLET WATER NODE,Water,1
 Node,64,POINT_OF_SALE WUC 0.02GPM 140F INLET WATER NODE,Water,1
 Node,65,POINT_OF_SALE WUC 0.02GPM 140F OUTLET WATER NODE,Water,1
 Node,66,MAIN SERVICE WATER LOOP DEMAND BYPASS PIPE INLET NODE,Water,1
 Node,67,MAIN SERVICE WATER LOOP DEMAND BYPASS PIPE OUTLET NODE,Water,1
 Node,68,PIPE ADIABATIC 4 INLET WATER NODE,Water,1
 Node,69,MAIN SERVICE WATER LOOP DEMAND OUTLET NODE,Water,2
 Node,70,ALL_ST=LOBBY - ELEVATOR_FL=BUILDING STORY 1_SCH=C ZONE AIR NODE,Air,1
 Node,71,ALL_ST=RETAIL - SALES_FL=BUILDING STORY 1_SCH=C ZONE AIR NODE,Air,1
 Node,72,ALL_ST=RETAIL - SALES_FL=BUILDING STORY 1_SCH=C 1 ZONE AIR NODE,Air,1
 Node,73,ALL_ST=RETAIL - SALES_FL=BUILDING STORY 1_SCH=C 2 ZONE AIR NODE,Air,1
 Node,74,ALL_ST=STORAGE AREA_FL=BUILDING STORY 1_SCH=E ZONE AIR NODE,Air,1
 Node,75,SYS_3|MIXED|SHR>NONE|SC>DX|SH>C-E|SSF>CV|ZH>B-E|ZC>NONE|SRF>NONE| DEMAND OUTLET NODE,Air,2
 Node,76,SYS_3|MIXED|SHR>NONE|SC>DX|SH>C-E|SSF>CV|ZH>B-E|ZC>NONE|SRF>NONE| 1 DEMAND OUTLET NODE,Air,2
 Node,77,SYS_3|MIXED|SHR>NONE|SC>DX|SH>C-E|SSF>CV|ZH>B-E|ZC>NONE|SRF>NONE| 2 DEMAND OUTLET NODE,Air,2
 Node,78,SYS_3|MIXED|SHR>NONE|SC>DX|SH>C-E|SSF>CV|ZH>B-E|ZC>NONE|SRF>NONE| 3 DEMAND OUTLET NODE,Air,2
 Node,79,SYS_4|MIXED|SHR>NONE|SC>DX|SH>C-E|SSF>CV|ZH>B-E|ZC>NONE|SRF>NONE| DEMAND OUTLET NODE,Air,2
 Node,80,SYS_3|MIXED|SHR>NONE|SC>DX|SH>C-E|SSF>CV|ZH>B-E|ZC>NONE|SRF>NONE| OUTDOOR AIR NODE,Air,2
 Node,81,SYS_3|MIXED|SHR>NONE|SC>DX|SH>C-E|SSF>CV|ZH>B-E|ZC>NONE|SRF>NONE| 1 OUTDOOR AIR NODE,Air,2
 Node,82,SYS_3|MIXED|SHR>NONE|SC>DX|SH>C-E|SSF>CV|ZH>B-E|ZC>NONE|SRF>NONE| 2 OUTDOOR AIR NODE,Air,2
 Node,83,SYS_3|MIXED|SHR>NONE|SC>DX|SH>C-E|SSF>CV|ZH>B-E|ZC>NONE|SRF>NONE| 3 OUTDOOR AIR NODE,Air,2
 Node,84,SYS_4|MIXED|SHR>NONE|SC>DX|SH>C-E|SSF>CV|ZH>B-E|ZC>NONE|SRF>NONE| OUTDOOR AIR NODE,Air,2
 Node,85,MODEL OUTDOOR AIR NODE,Air,0
 Node,86,AIR TERMINAL SINGLE DUCT CONSTANT VOLUME NO REHEAT 2 INLET AIR NODE,Air,1
 Node,87,AIR TERMINAL SINGLE DUCT CONSTANT VOLUME NO REHEAT 3 INLET AIR NODE,Air,1
 Node,88,AIR TERMINAL SINGLE DUCT CONSTANT VOLUME NO REHEAT 4 INLET AIR NODE,Air,1
 Node,89,AIR TERMINAL SINGLE DUCT CONSTANT VOLUME NO REHEAT 5 INLET AIR NODE,Air,1
 Node,90,AIR TERMINAL SINGLE DUCT CONSTANT VOLUME NO REHEAT 1 INLET AIR NODE,Air,1
 Node,91,SYS_4_ZONE_EXHAUST_FAN OUTLET AIR NODE,Air,0
 Node,92,SYS_3|MIXED|SHR>NONE|SC>DX|SH>C-E|SSF>CV|ZH>B-E|ZC>NONE|SRF>NONE| RELIEF AIR NODE,Air,1
 Node,93,SYS_3|MIXED|SHR>NONE|SC>DX|SH>C-E|SSF>CV|ZH>B-E|ZC>NONE|SRF>NONE| 1 RELIEF AIR NODE,Air,1
 Node,94,SYS_3|MIXED|SHR>NONE|SC>DX|SH>C-E|SSF>CV|ZH>B-E|ZC>NONE|SRF>NONE| 2 RELIEF AIR NODE,Air,1
 Node,95,SYS_3|MIXED|SHR>NONE|SC>DX|SH>C-E|SSF>CV|ZH>B-E|ZC>NONE|SRF>NONE| 3 RELIEF AIR NODE,Air,1
 Node,96,SYS_4|MIXED|SHR>NONE|SC>DX|SH>C-E|SSF>CV|ZH>B-E|ZC>NONE|SRF>NONE| RELIEF AIR NODE,Air,1
! ===============================================================
! Suspicious nodes have 0 references.  It is normal for some nodes, however.
! Listing nodes with 0 references (culled from previous list):
! <Suspicious Node>,<NodeNumber>,<Node Name>,<Node Fluid Type>,<# Times Node Referenced After Definition>
 Suspicious Node,85,MODEL OUTDOOR AIR NODE,Air,0
 Suspicious Node,91,SYS_4_ZONE_EXHAUST_FAN OUTLET AIR NODE,Air,0
! ===============================================================
! <#Branch Lists>,<Number of Branch Lists>
 #Branch Lists,7
! <Branch List>,<Branch List Count>,<Branch List Name>,<Loop Name>,<Loop Type>,<Number of Branches>
! <Branch>,<Branch Count>,<Branch Name>,<Loop Name>,<Loop Type>,<Branch Inlet Node Name>,<Branch Outlet Node Name>
 Branch List,1,SYS_3|MIXED|SHR>NONE|SC>DX|SH>C-E|SSF>CV|ZH>B-E|ZC>NONE|SRF>NONE| SUPPLY BRANCHES,SYS_3|MIXED|SHR>NONE|SC>DX|SH>C-E|SSF>CV|ZH>B-E|ZC>NONE|SRF>NONE|,Air,1
   Branch,1,SYS_3|MIXED|SHR>NONE|SC>DX|SH>C-E|SSF>CV|ZH>B-E|ZC>NONE|SRF>NONE| MAIN BRANCH,SYS_3|MIXED|SHR>NONE|SC>DX|SH>C-E|SSF>CV|ZH>B-E|ZC>NONE|SRF>NONE|,Air,SYS_3|MIXED|SHR>NONE|SC>DX|SH>C-E|SSF>CV|ZH>B-E|ZC>NONE|SRF>NONE| SUPPLY INLET NODE,SYS_3|MIXED|SHR>NONE|SC>DX|SH>C-E|SSF>CV|ZH>B-E|ZC>NONE|SRF>NONE| SUPPLY OUTLET NODE
 Branch List,2,SYS_3|MIXED|SHR>NONE|SC>DX|SH>C-E|SSF>CV|ZH>B-E|ZC>NONE|SRF>NONE| 1 SUPPLY BRANCHES,SYS_3|MIXED|SHR>NONE|SC>DX|SH>C-E|SSF>CV|ZH>B-E|ZC>NONE|SRF>NONE| 1,Air,1
   Branch,1,SYS_3|MIXED|SHR>NONE|SC>DX|SH>C-E|SSF>CV|ZH>B-E|ZC>NONE|SRF>NONE| 1 MAIN BRANCH,SYS_3|MIXED|SHR>NONE|SC>DX|SH>C-E|SSF>CV|ZH>B-E|ZC>NONE|SRF>NONE| 1,Air,SYS_3|MIXED|SHR>NONE|SC>DX|SH>C-E|SSF>CV|ZH>B-E|ZC>NONE|SRF>NONE| 1 SUPPLY INLET NODE,SYS_3|MIXED|SHR>NONE|SC>DX|SH>C-E|SSF>CV|ZH>B-E|ZC>NONE|SRF>NONE| 1 SUPPLY OUTLET NODE
 Branch List,3,SYS_3|MIXED|SHR>NONE|SC>DX|SH>C-E|SSF>CV|ZH>B-E|ZC>NONE|SRF>NONE| 2 SUPPLY BRANCHES,SYS_3|MIXED|SHR>NONE|SC>DX|SH>C-E|SSF>CV|ZH>B-E|ZC>NONE|SRF>NONE| 2,Air,1
   Branch,1,SYS_3|MIXED|SHR>NONE|SC>DX|SH>C-E|SSF>CV|ZH>B-E|ZC>NONE|SRF>NONE| 2 MAIN BRANCH,SYS_3|MIXED|SHR>NONE|SC>DX|SH>C-E|SSF>CV|ZH>B-E|ZC>NONE|SRF>NONE| 2,Air,SYS_3|MIXED|SHR>NONE|SC>DX|SH>C-E|SSF>CV|ZH>B-E|ZC>NONE|SRF>NONE| 2 SUPPLY INLET NODE,SYS_3|MIXED|SHR>NONE|SC>DX|SH>C-E|SSF>CV|ZH>B-E|ZC>NONE|SRF>NONE| 2 SUPPLY OUTLET NODE
 Branch List,4,SYS_3|MIXED|SHR>NONE|SC>DX|SH>C-E|SSF>CV|ZH>B-E|ZC>NONE|SRF>NONE| 3 SUPPLY BRANCHES,SYS_3|MIXED|SHR>NONE|SC>DX|SH>C-E|SSF>CV|ZH>B-E|ZC>NONE|SRF>NONE| 3,Air,1
   Branch,1,SYS_3|MIXED|SHR>NONE|SC>DX|SH>C-E|SSF>CV|ZH>B-E|ZC>NONE|SRF>NONE| 3 MAIN BRANCH,SYS_3|MIXED|SHR>NONE|SC>DX|SH>C-E|SSF>CV|ZH>B-E|ZC>NONE|SRF>NONE| 3,Air,SYS_3|MIXED|SHR>NONE|SC>DX|SH>C-E|SSF>CV|ZH>B-E|ZC>NONE|SRF>NONE| 3 SUPPLY INLET NODE,SYS_3|MIXED|SHR>NONE|SC>DX|SH>C-E|SSF>CV|ZH>B-E|ZC>NONE|SRF>NONE| 3 SUPPLY OUTLET NODE
 Branch List,5,SYS_4|MIXED|SHR>NONE|SC>DX|SH>C-E|SSF>CV|ZH>B-E|ZC>NONE|SRF>NONE| SUPPLY BRANCHES,SYS_4|MIXED|SHR>NONE|SC>DX|SH>C-E|SSF>CV|ZH>B-E|ZC>NONE|SRF>NONE|,Air,1
   Branch,1,SYS_4|MIXED|SHR>NONE|SC>DX|SH>C-E|SSF>CV|ZH>B-E|ZC>NONE|SRF>NONE| MAIN BRANCH,SYS_4|MIXED|SHR>NONE|SC>DX|SH>C-E|SSF>CV|ZH>B-E|ZC>NONE|SRF>NONE|,Air,SYS_4|MIXED|SHR>NONE|SC>DX|SH>C-E|SSF>CV|ZH>B-E|ZC>NONE|SRF>NONE| SUPPLY INLET NODE,SYS_4|MIXED|SHR>NONE|SC>DX|SH>C-E|SSF>CV|ZH>B-E|ZC>NONE|SRF>NONE| SUPPLY OUTLET NODE
 Branch List,6,MAIN SERVICE WATER LOOP SUPPLY BRANCHES,MAIN SERVICE WATER LOOP,Plant Supply,4
   Branch,1,MAIN SERVICE WATER LOOP SUPPLY INLET BRANCH,MAIN SERVICE WATER LOOP,Plant Supply,MAIN SERVICE WATER LOOP SUPPLY INLET NODE,MAIN SERVICE WATER LOOP CIRCULATOR PUMP OUTLET WATER NODE
   Branch,2,MAIN SERVICE WATER LOOP SUPPLY BRANCH 1,MAIN SERVICE WATER LOOP,Plant Supply,17GAL ELECTRICITY WATER HEATER - 11KBTU/HR 1 THERM EFF SUPPLY INLET WATER NODE,17GAL ELECTRICITY WATER HEATER - 11KBTU/HR 1 THERM EFF SUPPLY OUTLET WATER NODE
   Branch,3,MAIN SERVICE WATER LOOP SUPPLY BRANCH 2,MAIN SERVICE WATER LOOP,Plant Supply,PIPE ADIABATIC 1 INLET WATER NODE,PIPE ADIABATIC 1 OUTLET WATER NODE
   Branch,4,MAIN SERVICE WATER LOOP SUPPLY OUTLET BRANCH,MAIN SERVICE WATER LOOP,Plant Supply,PIPE ADIABATIC 3 INLET WATER NODE,MAIN SERVICE WATER LOOP SUPPLY OUTLET NODE
 Branch List,7,MAIN SERVICE WATER LOOP DEMAND BRANCHES,MAIN SERVICE WATER LOOP,Plant Demand,8
   Branch,1,MAIN SERVICE WATER LOOP DEMAND INLET BRANCH,MAIN SERVICE WATER LOOP,Plant Demand,MAIN SERVICE WATER LOOP DEMAND INLET NODE,MAIN SERVICE WATER LOOP DEMAND INLET PIPE NODE
   Branch,2,MAIN SERVICE WATER LOOP DEMAND BRANCH 1,MAIN SERVICE WATER LOOP,Plant Demand,PIPE ADIABATIC 2 INLET WATER NODE,PIPE ADIABATIC 2 OUTLET WATER NODE
   Branch,3,MAIN SERVICE WATER LOOP DEMAND BRANCH 2,MAIN SERVICE WATER LOOP,Plant Demand,BACK_SPACE WUC 0.1GPM 140F INLET WATER NODE,BACK_SPACE WUC 0.1GPM 140F OUTLET WATER NODE
   Branch,4,MAIN SERVICE WATER LOOP DEMAND BRANCH 3,MAIN SERVICE WATER LOOP,Plant Demand,CORE_RETAIL WUC 0.18GPM 140F INLET WATER NODE,CORE_RETAIL WUC 0.18GPM 140F OUTLET WATER NODE
   Branch,5,MAIN SERVICE WATER LOOP DEMAND BRANCH 4,MAIN SERVICE WATER LOOP,Plant Demand,FRONT_RETAIL WUC 0.02GPM 140F INLET WATER NODE,FRONT_RETAIL WUC 0.02GPM 140F OUTLET WATER NODE
   Branch,6,MAIN SERVICE WATER LOOP DEMAND BRANCH 5,MAIN SERVICE WATER LOOP,Plant Demand,POINT_OF_SALE WUC 0.02GPM 140F INLET WATER NODE,POINT_OF_SALE WUC 0.02GPM 140F OUTLET WATER NODE
   Branch,7,MAIN SERVICE WATER LOOP DEMAND BYPASS BRANCH,MAIN SERVICE WATER LOOP,Plant Demand,MAIN SERVICE WATER LOOP DEMAND BYPASS PIPE INLET NODE,MAIN SERVICE WATER LOOP DEMAND BYPASS PIPE OUTLET NODE
   Branch,8,MAIN SERVICE WATER LOOP DEMAND OUTLET BRANCH,MAIN SERVICE WATER LOOP,Plant Demand,PIPE ADIABATIC 4 INLET WATER NODE,MAIN SERVICE WATER LOOP DEMAND OUTLET NODE
! ===============================================================
! <#Supply Air Paths>,<Number of Supply Air Paths>
 #Supply Air Paths,5
! <Supply Air Path>,<Supply Air Path Count>,<Supply Air Path Name>,<AirLoopHVAC Name>
! <#Components on Supply Air Path>,<Number of Components>
! <Supply Air Path Component>,<Component Count>,<Component Type>,<Component Name>,<AirLoopHVAC Name>
! <#Outlet Nodes on Supply Air Path Component>,<Number of Nodes>
! <Supply Air Path Component Nodes>,<Node Count>,<Component Type>,<Component Name>,<Inlet Node Name>,<Outlet Node Name>,<AirLoopHVAC Name>
 Supply Air Path,1,SYS_3|MIXED|SHR>NONE|SC>DX|SH>C-E|SSF>CV|ZH>B-E|ZC>NONE|SRF>NONE| SYS_3|MIXED|SHR>NONE|SC>DX|SH>C-E|SSF>CV|ZH>B-E|ZC>NONE|SRF>NONE| DEMAND INLET NODE SUPPLY PATH,SYS_3|MIXED|SHR>NONE|SC>DX|SH>C-E|SSF>CV|ZH>B-E|ZC>NONE|SRF>NONE|
   #Components on Supply Air Path,1
   Supply Air Path Component,1,AIRLOOPHVAC:ZONESPLITTER,AIR LOOP HVAC ZONE SPLITTER 2,SYS_3|MIXED|SHR>NONE|SC>DX|SH>C-E|SSF>CV|ZH>B-E|ZC>NONE|SRF>NONE|
     #Outlet Nodes on Supply Air Path Component,1
     Supply Air Path Component Nodes,1,AIRLOOPHVAC:ZONESPLITTER,AIR LOOP HVAC ZONE SPLITTER 2,SYS_3|MIXED|SHR>NONE|SC>DX|SH>C-E|SSF>CV|ZH>B-E|ZC>NONE|SRF>NONE| DEMAND INLET NODE,AIR TERMINAL SINGLE DUCT CONSTANT VOLUME NO REHEAT 2 INLET AIR NODE,SYS_3|MIXED|SHR>NONE|SC>DX|SH>C-E|SSF>CV|ZH>B-E|ZC>NONE|SRF>NONE|
! <#Nodes on Supply Air Path>,<Number of Nodes>
! <Supply Air Path Node>,<Node Type>,<Node Count>,<Node Name>,<AirLoopHVAC Name>
#Nodes on Supply Air Path,2
   Supply Air Path Node,Inlet Node,1,SYS_3|MIXED|SHR>NONE|SC>DX|SH>C-E|SSF>CV|ZH>B-E|ZC>NONE|SRF>NONE| DEMAND INLET NODE,SYS_3|MIXED|SHR>NONE|SC>DX|SH>C-E|SSF>CV|ZH>B-E|ZC>NONE|SRF>NONE|
   Supply Air Path Node,Outlet Node,2,AIR TERMINAL SINGLE DUCT CONSTANT VOLUME NO REHEAT 2 INLET AIR NODE,SYS_3|MIXED|SHR>NONE|SC>DX|SH>C-E|SSF>CV|ZH>B-E|ZC>NONE|SRF>NONE|
 Supply Air Path,2,SYS_3|MIXED|SHR>NONE|SC>DX|SH>C-E|SSF>CV|ZH>B-E|ZC>NONE|SRF>NONE| 1 SYS_3|MIXED|SHR>NONE|SC>DX|SH>C-E|SSF>CV|ZH>B-E|ZC>NONE|SRF>NONE| 1 DEMAND INLET NODE SUPPLY PATH,SYS_3|MIXED|SHR>NONE|SC>DX|SH>C-E|SSF>CV|ZH>B-E|ZC>NONE|SRF>NONE| 1
   #Components on Supply Air Path,1
   Supply Air Path Component,1,AIRLOOPHVAC:ZONESPLITTER,AIR LOOP HVAC ZONE SPLITTER 3,SYS_3|MIXED|SHR>NONE|SC>DX|SH>C-E|SSF>CV|ZH>B-E|ZC>NONE|SRF>NONE| 1
     #Outlet Nodes on Supply Air Path Component,1
     Supply Air Path Component Nodes,1,AIRLOOPHVAC:ZONESPLITTER,AIR LOOP HVAC ZONE SPLITTER 3,SYS_3|MIXED|SHR>NONE|SC>DX|SH>C-E|SSF>CV|ZH>B-E|ZC>NONE|SRF>NONE| 1 DEMAND INLET NODE,AIR TERMINAL SINGLE DUCT CONSTANT VOLUME NO REHEAT 3 INLET AIR NODE,SYS_3|MIXED|SHR>NONE|SC>DX|SH>C-E|SSF>CV|ZH>B-E|ZC>NONE|SRF>NONE| 1
! <#Nodes on Supply Air Path>,<Number of Nodes>
! <Supply Air Path Node>,<Node Type>,<Node Count>,<Node Name>,<AirLoopHVAC Name>
#Nodes on Supply Air Path,2
   Supply Air Path Node,Inlet Node,1,SYS_3|MIXED|SHR>NONE|SC>DX|SH>C-E|SSF>CV|ZH>B-E|ZC>NONE|SRF>NONE| 1 DEMAND INLET NODE,SYS_3|MIXED|SHR>NONE|SC>DX|SH>C-E|SSF>CV|ZH>B-E|ZC>NONE|SRF>NONE| 1
   Supply Air Path Node,Outlet Node,2,AIR TERMINAL SINGLE DUCT CONSTANT VOLUME NO REHEAT 3 INLET AIR NODE,SYS_3|MIXED|SHR>NONE|SC>DX|SH>C-E|SSF>CV|ZH>B-E|ZC>NONE|SRF>NONE| 1
 Supply Air Path,3,SYS_3|MIXED|SHR>NONE|SC>DX|SH>C-E|SSF>CV|ZH>B-E|ZC>NONE|SRF>NONE| 2 SYS_3|MIXED|SHR>NONE|SC>DX|SH>C-E|SSF>CV|ZH>B-E|ZC>NONE|SRF>NONE| 2 DEMAND INLET NODE SUPPLY PATH,SYS_3|MIXED|SHR>NONE|SC>DX|SH>C-E|SSF>CV|ZH>B-E|ZC>NONE|SRF>NONE| 2
   #Components on Supply Air Path,1
   Supply Air Path Component,1,AIRLOOPHVAC:ZONESPLITTER,AIR LOOP HVAC ZONE SPLITTER 4,SYS_3|MIXED|SHR>NONE|SC>DX|SH>C-E|SSF>CV|ZH>B-E|ZC>NONE|SRF>NONE| 2
     #Outlet Nodes on Supply Air Path Component,1
     Supply Air Path Component Nodes,1,AIRLOOPHVAC:ZONESPLITTER,AIR LOOP HVAC ZONE SPLITTER 4,SYS_3|MIXED|SHR>NONE|SC>DX|SH>C-E|SSF>CV|ZH>B-E|ZC>NONE|SRF>NONE| 2 DEMAND INLET NODE,AIR TERMINAL SINGLE DUCT CONSTANT VOLUME NO REHEAT 4 INLET AIR NODE,SYS_3|MIXED|SHR>NONE|SC>DX|SH>C-E|SSF>CV|ZH>B-E|ZC>NONE|SRF>NONE| 2
! <#Nodes on Supply Air Path>,<Number of Nodes>
! <Supply Air Path Node>,<Node Type>,<Node Count>,<Node Name>,<AirLoopHVAC Name>
#Nodes on Supply Air Path,2
   Supply Air Path Node,Inlet Node,1,SYS_3|MIXED|SHR>NONE|SC>DX|SH>C-E|SSF>CV|ZH>B-E|ZC>NONE|SRF>NONE| 2 DEMAND INLET NODE,SYS_3|MIXED|SHR>NONE|SC>DX|SH>C-E|SSF>CV|ZH>B-E|ZC>NONE|SRF>NONE| 2
   Supply Air Path Node,Outlet Node,2,AIR TERMINAL SINGLE DUCT CONSTANT VOLUME NO REHEAT 4 INLET AIR NODE,SYS_3|MIXED|SHR>NONE|SC>DX|SH>C-E|SSF>CV|ZH>B-E|ZC>NONE|SRF>NONE| 2
 Supply Air Path,4,SYS_3|MIXED|SHR>NONE|SC>DX|SH>C-E|SSF>CV|ZH>B-E|ZC>NONE|SRF>NONE| 3 SYS_3|MIXED|SHR>NONE|SC>DX|SH>C-E|SSF>CV|ZH>B-E|ZC>NONE|SRF>NONE| 3 DEMAND INLET NODE SUPPLY PATH,SYS_3|MIXED|SHR>NONE|SC>DX|SH>C-E|SSF>CV|ZH>B-E|ZC>NONE|SRF>NONE| 3
   #Components on Supply Air Path,1
   Supply Air Path Component,1,AIRLOOPHVAC:ZONESPLITTER,AIR LOOP HVAC ZONE SPLITTER 5,SYS_3|MIXED|SHR>NONE|SC>DX|SH>C-E|SSF>CV|ZH>B-E|ZC>NONE|SRF>NONE| 3
     #Outlet Nodes on Supply Air Path Component,1
     Supply Air Path Component Nodes,1,AIRLOOPHVAC:ZONESPLITTER,AIR LOOP HVAC ZONE SPLITTER 5,SYS_3|MIXED|SHR>NONE|SC>DX|SH>C-E|SSF>CV|ZH>B-E|ZC>NONE|SRF>NONE| 3 DEMAND INLET NODE,AIR TERMINAL SINGLE DUCT CONSTANT VOLUME NO REHEAT 5 INLET AIR NODE,SYS_3|MIXED|SHR>NONE|SC>DX|SH>C-E|SSF>CV|ZH>B-E|ZC>NONE|SRF>NONE| 3
! <#Nodes on Supply Air Path>,<Number of Nodes>
! <Supply Air Path Node>,<Node Type>,<Node Count>,<Node Name>,<AirLoopHVAC Name>
#Nodes on Supply Air Path,2
   Supply Air Path Node,Inlet Node,1,SYS_3|MIXED|SHR>NONE|SC>DX|SH>C-E|SSF>CV|ZH>B-E|ZC>NONE|SRF>NONE| 3 DEMAND INLET NODE,SYS_3|MIXED|SHR>NONE|SC>DX|SH>C-E|SSF>CV|ZH>B-E|ZC>NONE|SRF>NONE| 3
   Supply Air Path Node,Outlet Node,2,AIR TERMINAL SINGLE DUCT CONSTANT VOLUME NO REHEAT 5 INLET AIR NODE,SYS_3|MIXED|SHR>NONE|SC>DX|SH>C-E|SSF>CV|ZH>B-E|ZC>NONE|SRF>NONE| 3
 Supply Air Path,5,SYS_4|MIXED|SHR>NONE|SC>DX|SH>C-E|SSF>CV|ZH>B-E|ZC>NONE|SRF>NONE| SYS_4|MIXED|SHR>NONE|SC>DX|SH>C-E|SSF>CV|ZH>B-E|ZC>NONE|SRF>NONE| DEMAND INLET NODE SUPPLY PATH,SYS_4|MIXED|SHR>NONE|SC>DX|SH>C-E|SSF>CV|ZH>B-E|ZC>NONE|SRF>NONE|
   #Components on Supply Air Path,1
   Supply Air Path Component,1,AIRLOOPHVAC:ZONESPLITTER,AIR LOOP HVAC ZONE SPLITTER 1,SYS_4|MIXED|SHR>NONE|SC>DX|SH>C-E|SSF>CV|ZH>B-E|ZC>NONE|SRF>NONE|
     #Outlet Nodes on Supply Air Path Component,1
     Supply Air Path Component Nodes,1,AIRLOOPHVAC:ZONESPLITTER,AIR LOOP HVAC ZONE SPLITTER 1,SYS_4|MIXED|SHR>NONE|SC>DX|SH>C-E|SSF>CV|ZH>B-E|ZC>NONE|SRF>NONE| DEMAND INLET NODE,AIR TERMINAL SINGLE DUCT CONSTANT VOLUME NO REHEAT 1 INLET AIR NODE,SYS_4|MIXED|SHR>NONE|SC>DX|SH>C-E|SSF>CV|ZH>B-E|ZC>NONE|SRF>NONE|
! <#Nodes on Supply Air Path>,<Number of Nodes>
! <Supply Air Path Node>,<Node Type>,<Node Count>,<Node Name>,<AirLoopHVAC Name>
#Nodes on Supply Air Path,2
   Supply Air Path Node,Inlet Node,1,SYS_4|MIXED|SHR>NONE|SC>DX|SH>C-E|SSF>CV|ZH>B-E|ZC>NONE|SRF>NONE| DEMAND INLET NODE,SYS_4|MIXED|SHR>NONE|SC>DX|SH>C-E|SSF>CV|ZH>B-E|ZC>NONE|SRF>NONE|
   Supply Air Path Node,Outlet Node,2,AIR TERMINAL SINGLE DUCT CONSTANT VOLUME NO REHEAT 1 INLET AIR NODE,SYS_4|MIXED|SHR>NONE|SC>DX|SH>C-E|SSF>CV|ZH>B-E|ZC>NONE|SRF>NONE|
! ===============================================================
! <#Return Air Paths>,<Number of Return Air Paths>
 #Return Air Paths,5
! <Return Air Path>,<Return Air Path Count>,<Return Air Path Name>,<AirLoopHVAC Name>
! <#Components on Return Air Path>,<Number of Components>
! <Return Air Path Component>,<Component Count>,<Component Type>,<Component Name>,<AirLoopHVAC Name>
! <#Inlet Nodes on Return Air Path Component>,<Number of Nodes>
! <Return Air Path Component Nodes>,<Node Count>,<Component Type>,<Component Name>,<Inlet Node Name>,<Outlet Node Name>,<AirLoopHVAC Name>
 Return Air Path,1,SYS_3|MIXED|SHR>NONE|SC>DX|SH>C-E|SSF>CV|ZH>B-E|ZC>NONE|SRF>NONE| RETURN PATH,SYS_3|MIXED|SHR>NONE|SC>DX|SH>C-E|SSF>CV|ZH>B-E|ZC>NONE|SRF>NONE|
   #Components on Return Air Path,1
   Return Air Path Component,1,AIRLOOPHVAC:ZONEMIXER,AIR LOOP HVAC ZONE MIXER 2,SYS_3|MIXED|SHR>NONE|SC>DX|SH>C-E|SSF>CV|ZH>B-E|ZC>NONE|SRF>NONE|
     #Inlet Nodes on Return Air Path Component,1
     Return Air Path Component Nodes,1,AIRLOOPHVAC:ZONEMIXER,AIR LOOP HVAC ZONE MIXER 2,ALL_ST=RETAIL - SALES_FL=BUILDING STORY 1_SCH=C RETURN AIR NODE,SYS_3|MIXED|SHR>NONE|SC>DX|SH>C-E|SSF>CV|ZH>B-E|ZC>NONE|SRF>NONE| DEMAND OUTLET NODE,SYS_3|MIXED|SHR>NONE|SC>DX|SH>C-E|SSF>CV|ZH>B-E|ZC>NONE|SRF>NONE|
! <#Nodes on Return Air Path>,<Number of Nodes>
! <Return Air Path Node>,<Node Type>,<Node Count>,<Node Name>,<AirLoopHVAC Name>
   #Nodes on Return Air Path,2
   Return Air Path Node,Outlet Node,1,SYS_3|MIXED|SHR>NONE|SC>DX|SH>C-E|SSF>CV|ZH>B-E|ZC>NONE|SRF>NONE| DEMAND OUTLET NODE,SYS_3|MIXED|SHR>NONE|SC>DX|SH>C-E|SSF>CV|ZH>B-E|ZC>NONE|SRF>NONE|
   Return Air Path Node,Inlet Node,2,ALL_ST=RETAIL - SALES_FL=BUILDING STORY 1_SCH=C RETURN AIR NODE,SYS_3|MIXED|SHR>NONE|SC>DX|SH>C-E|SSF>CV|ZH>B-E|ZC>NONE|SRF>NONE|
 Return Air Path,2,SYS_3|MIXED|SHR>NONE|SC>DX|SH>C-E|SSF>CV|ZH>B-E|ZC>NONE|SRF>NONE| 1 RETURN PATH,SYS_3|MIXED|SHR>NONE|SC>DX|SH>C-E|SSF>CV|ZH>B-E|ZC>NONE|SRF>NONE| 1
   #Components on Return Air Path,1
   Return Air Path Component,1,AIRLOOPHVAC:ZONEMIXER,AIR LOOP HVAC ZONE MIXER 3,SYS_3|MIXED|SHR>NONE|SC>DX|SH>C-E|SSF>CV|ZH>B-E|ZC>NONE|SRF>NONE| 1
     #Inlet Nodes on Return Air Path Component,1
     Return Air Path Component Nodes,1,AIRLOOPHVAC:ZONEMIXER,AIR LOOP HVAC ZONE MIXER 3,ALL_ST=RETAIL - SALES_FL=BUILDING STORY 1_SCH=C 1 RETURN AIR NODE,SYS_3|MIXED|SHR>NONE|SC>DX|SH>C-E|SSF>CV|ZH>B-E|ZC>NONE|SRF>NONE| 1 DEMAND OUTLET NODE,SYS_3|MIXED|SHR>NONE|SC>DX|SH>C-E|SSF>CV|ZH>B-E|ZC>NONE|SRF>NONE| 1
! <#Nodes on Return Air Path>,<Number of Nodes>
! <Return Air Path Node>,<Node Type>,<Node Count>,<Node Name>,<AirLoopHVAC Name>
   #Nodes on Return Air Path,2
   Return Air Path Node,Outlet Node,1,SYS_3|MIXED|SHR>NONE|SC>DX|SH>C-E|SSF>CV|ZH>B-E|ZC>NONE|SRF>NONE| 1 DEMAND OUTLET NODE,SYS_3|MIXED|SHR>NONE|SC>DX|SH>C-E|SSF>CV|ZH>B-E|ZC>NONE|SRF>NONE| 1
   Return Air Path Node,Inlet Node,2,ALL_ST=RETAIL - SALES_FL=BUILDING STORY 1_SCH=C 1 RETURN AIR NODE,SYS_3|MIXED|SHR>NONE|SC>DX|SH>C-E|SSF>CV|ZH>B-E|ZC>NONE|SRF>NONE| 1
 Return Air Path,3,SYS_3|MIXED|SHR>NONE|SC>DX|SH>C-E|SSF>CV|ZH>B-E|ZC>NONE|SRF>NONE| 2 RETURN PATH,SYS_3|MIXED|SHR>NONE|SC>DX|SH>C-E|SSF>CV|ZH>B-E|ZC>NONE|SRF>NONE| 2
   #Components on Return Air Path,1
   Return Air Path Component,1,AIRLOOPHVAC:ZONEMIXER,AIR LOOP HVAC ZONE MIXER 4,SYS_3|MIXED|SHR>NONE|SC>DX|SH>C-E|SSF>CV|ZH>B-E|ZC>NONE|SRF>NONE| 2
     #Inlet Nodes on Return Air Path Component,1
     Return Air Path Component Nodes,1,AIRLOOPHVAC:ZONEMIXER,AIR LOOP HVAC ZONE MIXER 4,ALL_ST=LOBBY - ELEVATOR_FL=BUILDING STORY 1_SCH=C RETURN AIR NODE,SYS_3|MIXED|SHR>NONE|SC>DX|SH>C-E|SSF>CV|ZH>B-E|ZC>NONE|SRF>NONE| 2 DEMAND OUTLET NODE,SYS_3|MIXED|SHR>NONE|SC>DX|SH>C-E|SSF>CV|ZH>B-E|ZC>NONE|SRF>NONE| 2
! <#Nodes on Return Air Path>,<Number of Nodes>
! <Return Air Path Node>,<Node Type>,<Node Count>,<Node Name>,<AirLoopHVAC Name>
   #Nodes on Return Air Path,2
   Return Air Path Node,Outlet Node,1,SYS_3|MIXED|SHR>NONE|SC>DX|SH>C-E|SSF>CV|ZH>B-E|ZC>NONE|SRF>NONE| 2 DEMAND OUTLET NODE,SYS_3|MIXED|SHR>NONE|SC>DX|SH>C-E|SSF>CV|ZH>B-E|ZC>NONE|SRF>NONE| 2
   Return Air Path Node,Inlet Node,2,ALL_ST=LOBBY - ELEVATOR_FL=BUILDING STORY 1_SCH=C RETURN AIR NODE,SYS_3|MIXED|SHR>NONE|SC>DX|SH>C-E|SSF>CV|ZH>B-E|ZC>NONE|SRF>NONE| 2
 Return Air Path,4,SYS_3|MIXED|SHR>NONE|SC>DX|SH>C-E|SSF>CV|ZH>B-E|ZC>NONE|SRF>NONE| 3 RETURN PATH,SYS_3|MIXED|SHR>NONE|SC>DX|SH>C-E|SSF>CV|ZH>B-E|ZC>NONE|SRF>NONE| 3
   #Components on Return Air Path,1
   Return Air Path Component,1,AIRLOOPHVAC:ZONEMIXER,AIR LOOP HVAC ZONE MIXER 5,SYS_3|MIXED|SHR>NONE|SC>DX|SH>C-E|SSF>CV|ZH>B-E|ZC>NONE|SRF>NONE| 3
     #Inlet Nodes on Return Air Path Component,1
     Return Air Path Component Nodes,1,AIRLOOPHVAC:ZONEMIXER,AIR LOOP HVAC ZONE MIXER 5,ALL_ST=RETAIL - SALES_FL=BUILDING STORY 1_SCH=C 2 RETURN AIR NODE,SYS_3|MIXED|SHR>NONE|SC>DX|SH>C-E|SSF>CV|ZH>B-E|ZC>NONE|SRF>NONE| 3 DEMAND OUTLET NODE,SYS_3|MIXED|SHR>NONE|SC>DX|SH>C-E|SSF>CV|ZH>B-E|ZC>NONE|SRF>NONE| 3
! <#Nodes on Return Air Path>,<Number of Nodes>
! <Return Air Path Node>,<Node Type>,<Node Count>,<Node Name>,<AirLoopHVAC Name>
   #Nodes on Return Air Path,2
   Return Air Path Node,Outlet Node,1,SYS_3|MIXED|SHR>NONE|SC>DX|SH>C-E|SSF>CV|ZH>B-E|ZC>NONE|SRF>NONE| 3 DEMAND OUTLET NODE,SYS_3|MIXED|SHR>NONE|SC>DX|SH>C-E|SSF>CV|ZH>B-E|ZC>NONE|SRF>NONE| 3
   Return Air Path Node,Inlet Node,2,ALL_ST=RETAIL - SALES_FL=BUILDING STORY 1_SCH=C 2 RETURN AIR NODE,SYS_3|MIXED|SHR>NONE|SC>DX|SH>C-E|SSF>CV|ZH>B-E|ZC>NONE|SRF>NONE| 3
 Return Air Path,5,SYS_4|MIXED|SHR>NONE|SC>DX|SH>C-E|SSF>CV|ZH>B-E|ZC>NONE|SRF>NONE| RETURN PATH,SYS_4|MIXED|SHR>NONE|SC>DX|SH>C-E|SSF>CV|ZH>B-E|ZC>NONE|SRF>NONE|
   #Components on Return Air Path,1
   Return Air Path Component,1,AIRLOOPHVAC:ZONEMIXER,AIR LOOP HVAC ZONE MIXER 1,SYS_4|MIXED|SHR>NONE|SC>DX|SH>C-E|SSF>CV|ZH>B-E|ZC>NONE|SRF>NONE|
     #Inlet Nodes on Return Air Path Component,1
     Return Air Path Component Nodes,1,AIRLOOPHVAC:ZONEMIXER,AIR LOOP HVAC ZONE MIXER 1,ALL_ST=STORAGE AREA_FL=BUILDING STORY 1_SCH=E RETURN AIR NODE,SYS_4|MIXED|SHR>NONE|SC>DX|SH>C-E|SSF>CV|ZH>B-E|ZC>NONE|SRF>NONE| DEMAND OUTLET NODE,SYS_4|MIXED|SHR>NONE|SC>DX|SH>C-E|SSF>CV|ZH>B-E|ZC>NONE|SRF>NONE|
! <#Nodes on Return Air Path>,<Number of Nodes>
! <Return Air Path Node>,<Node Type>,<Node Count>,<Node Name>,<AirLoopHVAC Name>
   #Nodes on Return Air Path,2
   Return Air Path Node,Outlet Node,1,SYS_4|MIXED|SHR>NONE|SC>DX|SH>C-E|SSF>CV|ZH>B-E|ZC>NONE|SRF>NONE| DEMAND OUTLET NODE,SYS_4|MIXED|SHR>NONE|SC>DX|SH>C-E|SSF>CV|ZH>B-E|ZC>NONE|SRF>NONE|
   Return Air Path Node,Inlet Node,2,ALL_ST=STORAGE AREA_FL=BUILDING STORY 1_SCH=E RETURN AIR NODE,SYS_4|MIXED|SHR>NONE|SC>DX|SH>C-E|SSF>CV|ZH>B-E|ZC>NONE|SRF>NONE|
! ===============================================================
! #Outdoor Air Nodes,<Number of Outdoor Air Nodes>
 #Outdoor Air Nodes,6
! <Outdoor Air Node>,<NodeNumber>,<Node Name>
 Outdoor Air Node,80,SYS_3|MIXED|SHR>NONE|SC>DX|SH>C-E|SSF>CV|ZH>B-E|ZC>NONE|SRF>NONE| OUTDOOR AIR NODE
 Outdoor Air Node,81,SYS_3|MIXED|SHR>NONE|SC>DX|SH>C-E|SSF>CV|ZH>B-E|ZC>NONE|SRF>NONE| 1 OUTDOOR AIR NODE
 Outdoor Air Node,82,SYS_3|MIXED|SHR>NONE|SC>DX|SH>C-E|SSF>CV|ZH>B-E|ZC>NONE|SRF>NONE| 2 OUTDOOR AIR NODE
 Outdoor Air Node,83,SYS_3|MIXED|SHR>NONE|SC>DX|SH>C-E|SSF>CV|ZH>B-E|ZC>NONE|SRF>NONE| 3 OUTDOOR AIR NODE
 Outdoor Air Node,84,SYS_4|MIXED|SHR>NONE|SC>DX|SH>C-E|SSF>CV|ZH>B-E|ZC>NONE|SRF>NONE| OUTDOOR AIR NODE
 Outdoor Air Node,85,MODEL OUTDOOR AIR NODE
! ===============================================================
! <#Component Sets>,<Number of Component Sets>
 #Component Sets,51
! <Component Set>,<Component Set Count>,<Parent Object Type>,<Parent Object Name>,<Component Type>,<Component Name>,<Inlet Node ID>,<Outlet Node ID>,<Description>
 Component Set,1,BRANCH,SYS_3|MIXED|SHR>NONE|SC>DX|SH>C-E|SSF>CV|ZH>B-E|ZC>NONE|SRF>NONE| MAIN BRANCH,FAN:CONSTANTVOLUME,SYS3 RETURN FAN,SYS_3|MIXED|SHR>NONE|SC>DX|SH>C-E|SSF>CV|ZH>B-E|ZC>NONE|SRF>NONE| SUPPLY INLET NODE,SYS3 RETURN FAN OUTLET AIR NODE,Air Nodes
 Component Set,2,BRANCH,SYS_3|MIXED|SHR>NONE|SC>DX|SH>C-E|SSF>CV|ZH>B-E|ZC>NONE|SRF>NONE| MAIN BRANCH,AIRLOOPHVAC:OUTDOORAIRSYSTEM,AIR LOOP HVAC OUTDOOR AIR SYSTEM 2,SYS3 RETURN FAN OUTLET AIR NODE,SYS_3|MIXED|SHR>NONE|SC>DX|SH>C-E|SSF>CV|ZH>B-E|ZC>NONE|SRF>NONE| MIXED AIR NODE,Air Nodes
 Component Set,3,BRANCH,SYS_3|MIXED|SHR>NONE|SC>DX|SH>C-E|SSF>CV|ZH>B-E|ZC>NONE|SRF>NONE| MAIN BRANCH,COILSYSTEM:COOLING:DX,COILCOOLINGDXSINGLESPEED_DX 1 58KBTU/HR 7.7726EER COILSYSTEM,SYS_3|MIXED|SHR>NONE|SC>DX|SH>C-E|SSF>CV|ZH>B-E|ZC>NONE|SRF>NONE| MIXED AIR NODE,COILCOOLINGDXSINGLESPEED_DX 1 58KBTU/HR 7.7726EER OUTLET AIR NODE,Air Nodes
 Component Set,4,BRANCH,SYS_3|MIXED|SHR>NONE|SC>DX|SH>C-E|SSF>CV|ZH>B-E|ZC>NONE|SRF>NONE| MAIN BRANCH,COIL:HEATING:ELECTRIC,COIL HEATING ELECTRIC 2,COILCOOLINGDXSINGLESPEED_DX 1 58KBTU/HR 7.7726EER OUTLET AIR NODE,COIL HEATING ELECTRIC 2 OUTLET AIR NODE,Air Nodes
 Component Set,5,BRANCH,SYS_3|MIXED|SHR>NONE|SC>DX|SH>C-E|SSF>CV|ZH>B-E|ZC>NONE|SRF>NONE| MAIN BRANCH,FAN:CONSTANTVOLUME,FAN CONSTANT VOLUME 2,COIL HEATING ELECTRIC 2 OUTLET AIR NODE,SYS_3|MIXED|SHR>NONE|SC>DX|SH>C-E|SSF>CV|ZH>B-E|ZC>NONE|SRF>NONE| SUPPLY OUTLET NODE,Air Nodes
 Component Set,6,BRANCH,SYS_3|MIXED|SHR>NONE|SC>DX|SH>C-E|SSF>CV|ZH>B-E|ZC>NONE|SRF>NONE| 1 MAIN BRANCH,FAN:CONSTANTVOLUME,SYS3 RETURN FAN 1,SYS_3|MIXED|SHR>NONE|SC>DX|SH>C-E|SSF>CV|ZH>B-E|ZC>NONE|SRF>NONE| 1 SUPPLY INLET NODE,SYS3 RETURN FAN 1 OUTLET AIR NODE,Air Nodes
 Component Set,7,BRANCH,SYS_3|MIXED|SHR>NONE|SC>DX|SH>C-E|SSF>CV|ZH>B-E|ZC>NONE|SRF>NONE| 1 MAIN BRANCH,AIRLOOPHVAC:OUTDOORAIRSYSTEM,AIR LOOP HVAC OUTDOOR AIR SYSTEM 3,SYS3 RETURN FAN 1 OUTLET AIR NODE,SYS_3|MIXED|SHR>NONE|SC>DX|SH>C-E|SSF>CV|ZH>B-E|ZC>NONE|SRF>NONE| 1 MIXED AIR NODE,Air Nodes
 Component Set,8,BRANCH,SYS_3|MIXED|SHR>NONE|SC>DX|SH>C-E|SSF>CV|ZH>B-E|ZC>NONE|SRF>NONE| 1 MAIN BRANCH,COILSYSTEM:COOLING:DX,COILCOOLINGDXSINGLESPEED_DX 2 58KBTU/HR 7.7726EER COILSYSTEM,SYS_3|MIXED|SHR>NONE|SC>DX|SH>C-E|SSF>CV|ZH>B-E|ZC>NONE|SRF>NONE| 1 MIXED AIR NODE,COILCOOLINGDXSINGLESPEED_DX 2 58KBTU/HR 7.7726EER OUTLET AIR NODE,Air Nodes
 Component Set,9,BRANCH,SYS_3|MIXED|SHR>NONE|SC>DX|SH>C-E|SSF>CV|ZH>B-E|ZC>NONE|SRF>NONE| 1 MAIN BRANCH,COIL:HEATING:ELECTRIC,COIL HEATING ELECTRIC 3,COILCOOLINGDXSINGLESPEED_DX 2 58KBTU/HR 7.7726EER OUTLET AIR NODE,COIL HEATING ELECTRIC 3 OUTLET AIR NODE,Air Nodes
 Component Set,10,BRANCH,SYS_3|MIXED|SHR>NONE|SC>DX|SH>C-E|SSF>CV|ZH>B-E|ZC>NONE|SRF>NONE| 1 MAIN BRANCH,FAN:CONSTANTVOLUME,FAN CONSTANT VOLUME 3,COIL HEATING ELECTRIC 3 OUTLET AIR NODE,SYS_3|MIXED|SHR>NONE|SC>DX|SH>C-E|SSF>CV|ZH>B-E|ZC>NONE|SRF>NONE| 1 SUPPLY OUTLET NODE,Air Nodes
 Component Set,11,BRANCH,SYS_3|MIXED|SHR>NONE|SC>DX|SH>C-E|SSF>CV|ZH>B-E|ZC>NONE|SRF>NONE| 2 MAIN BRANCH,FAN:CONSTANTVOLUME,SYS3 RETURN FAN 2,SYS_3|MIXED|SHR>NONE|SC>DX|SH>C-E|SSF>CV|ZH>B-E|ZC>NONE|SRF>NONE| 2 SUPPLY INLET NODE,SYS3 RETURN FAN 2 OUTLET AIR NODE,Air Nodes
 Component Set,12,BRANCH,SYS_3|MIXED|SHR>NONE|SC>DX|SH>C-E|SSF>CV|ZH>B-E|ZC>NONE|SRF>NONE| 2 MAIN BRANCH,AIRLOOPHVAC:OUTDOORAIRSYSTEM,AIR LOOP HVAC OUTDOOR AIR SYSTEM 4,SYS3 RETURN FAN 2 OUTLET AIR NODE,SYS_3|MIXED|SHR>NONE|SC>DX|SH>C-E|SSF>CV|ZH>B-E|ZC>NONE|SRF>NONE| 2 MIXED AIR NODE,Air Nodes
 Component Set,13,BRANCH,SYS_3|MIXED|SHR>NONE|SC>DX|SH>C-E|SSF>CV|ZH>B-E|ZC>NONE|SRF>NONE| 2 MAIN BRANCH,COILSYSTEM:COOLING:DX,COILCOOLINGDXSINGLESPEED_DX 3 10KBTU/HR 7.7726EER COILSYSTEM,SYS_3|MIXED|SHR>NONE|SC>DX|SH>C-E|SSF>CV|ZH>B-E|ZC>NONE|SRF>NONE| 2 MIXED AIR NODE,COILCOOLINGDXSINGLESPEED_DX 3 10KBTU/HR 7.7726EER OUTLET AIR NODE,Air Nodes
 Component Set,14,BRANCH,SYS_3|MIXED|SHR>NONE|SC>DX|SH>C-E|SSF>CV|ZH>B-E|ZC>NONE|SRF>NONE| 2 MAIN BRANCH,COIL:HEATING:ELECTRIC,COIL HEATING ELECTRIC 4,COILCOOLINGDXSINGLESPEED_DX 3 10KBTU/HR 7.7726EER OUTLET AIR NODE,COIL HEATING ELECTRIC 4 OUTLET AIR NODE,Air Nodes
 Component Set,15,BRANCH,SYS_3|MIXED|SHR>NONE|SC>DX|SH>C-E|SSF>CV|ZH>B-E|ZC>NONE|SRF>NONE| 2 MAIN BRANCH,FAN:CONSTANTVOLUME,FAN CONSTANT VOLUME 4,COIL HEATING ELECTRIC 4 OUTLET AIR NODE,SYS_3|MIXED|SHR>NONE|SC>DX|SH>C-E|SSF>CV|ZH>B-E|ZC>NONE|SRF>NONE| 2 SUPPLY OUTLET NODE,Air Nodes
 Component Set,16,BRANCH,SYS_3|MIXED|SHR>NONE|SC>DX|SH>C-E|SSF>CV|ZH>B-E|ZC>NONE|SRF>NONE| 3 MAIN BRANCH,FAN:CONSTANTVOLUME,SYS3 RETURN FAN 3,SYS_3|MIXED|SHR>NONE|SC>DX|SH>C-E|SSF>CV|ZH>B-E|ZC>NONE|SRF>NONE| 3 SUPPLY INLET NODE,SYS3 RETURN FAN 3 OUTLET AIR NODE,Air Nodes
 Component Set,17,BRANCH,SYS_3|MIXED|SHR>NONE|SC>DX|SH>C-E|SSF>CV|ZH>B-E|ZC>NONE|SRF>NONE| 3 MAIN BRANCH,AIRLOOPHVAC:OUTDOORAIRSYSTEM,AIR LOOP HVAC OUTDOOR AIR SYSTEM 5,SYS3 RETURN FAN 3 OUTLET AIR NODE,SYS_3|MIXED|SHR>NONE|SC>DX|SH>C-E|SSF>CV|ZH>B-E|ZC>NONE|SRF>NONE| 3 MIXED AIR NODE,Air Nodes
 Component Set,18,BRANCH,SYS_3|MIXED|SHR>NONE|SC>DX|SH>C-E|SSF>CV|ZH>B-E|ZC>NONE|SRF>NONE| 3 MAIN BRANCH,COILSYSTEM:COOLING:DX,COILCOOLINGDXSINGLESPEED_DX 4 235KBTU/HR 7.7726EER COILSYSTEM,SYS_3|MIXED|SHR>NONE|SC>DX|SH>C-E|SSF>CV|ZH>B-E|ZC>NONE|SRF>NONE| 3 MIXED AIR NODE,COILCOOLINGDXSINGLESPEED_DX 4 235KBTU/HR 7.7726EER OUTLET AIR NODE,Air Nodes
 Component Set,19,BRANCH,SYS_3|MIXED|SHR>NONE|SC>DX|SH>C-E|SSF>CV|ZH>B-E|ZC>NONE|SRF>NONE| 3 MAIN BRANCH,COIL:HEATING:ELECTRIC,COIL HEATING ELECTRIC 5,COILCOOLINGDXSINGLESPEED_DX 4 235KBTU/HR 7.7726EER OUTLET AIR NODE,COIL HEATING ELECTRIC 5 OUTLET AIR NODE,Air Nodes
 Component Set,20,BRANCH,SYS_3|MIXED|SHR>NONE|SC>DX|SH>C-E|SSF>CV|ZH>B-E|ZC>NONE|SRF>NONE| 3 MAIN BRANCH,FAN:CONSTANTVOLUME,FAN CONSTANT VOLUME 5,COIL HEATING ELECTRIC 5 OUTLET AIR NODE,SYS_3|MIXED|SHR>NONE|SC>DX|SH>C-E|SSF>CV|ZH>B-E|ZC>NONE|SRF>NONE| 3 SUPPLY OUTLET NODE,Air Nodes
 Component Set,21,BRANCH,SYS_4|MIXED|SHR>NONE|SC>DX|SH>C-E|SSF>CV|ZH>B-E|ZC>NONE|SRF>NONE| MAIN BRANCH,AIRLOOPHVAC:OUTDOORAIRSYSTEM,AIR LOOP HVAC OUTDOOR AIR SYSTEM 1,SYS_4|MIXED|SHR>NONE|SC>DX|SH>C-E|SSF>CV|ZH>B-E|ZC>NONE|SRF>NONE| SUPPLY INLET NODE,SYS_4|MIXED|SHR>NONE|SC>DX|SH>C-E|SSF>CV|ZH>B-E|ZC>NONE|SRF>NONE| MIXED AIR NODE,Air Nodes
 Component Set,22,BRANCH,SYS_4|MIXED|SHR>NONE|SC>DX|SH>C-E|SSF>CV|ZH>B-E|ZC>NONE|SRF>NONE| MAIN BRANCH,COILSYSTEM:COOLING:DX,COILCOOLINGDXSINGLESPEED_DX 18KBTU/HR 7.7726EER COILSYSTEM,SYS_4|MIXED|SHR>NONE|SC>DX|SH>C-E|SSF>CV|ZH>B-E|ZC>NONE|SRF>NONE| MIXED AIR NODE,COILCOOLINGDXSINGLESPEED_DX 18KBTU/HR 7.7726EER OUTLET AIR NODE,Air Nodes
 Component Set,23,BRANCH,SYS_4|MIXED|SHR>NONE|SC>DX|SH>C-E|SSF>CV|ZH>B-E|ZC>NONE|SRF>NONE| MAIN BRANCH,COIL:HEATING:ELECTRIC,COIL HEATING ELECTRIC 1,COILCOOLINGDXSINGLESPEED_DX 18KBTU/HR 7.7726EER OUTLET AIR NODE,COIL HEATING ELECTRIC 1 OUTLET AIR NODE,Air Nodes
 Component Set,24,BRANCH,SYS_4|MIXED|SHR>NONE|SC>DX|SH>C-E|SSF>CV|ZH>B-E|ZC>NONE|SRF>NONE| MAIN BRANCH,FAN:CONSTANTVOLUME,FAN CONSTANT VOLUME 1,COIL HEATING ELECTRIC 1 OUTLET AIR NODE,SYS_4|MIXED|SHR>NONE|SC>DX|SH>C-E|SSF>CV|ZH>B-E|ZC>NONE|SRF>NONE| SUPPLY OUTLET NODE,Air Nodes
 Component Set,25,BRANCH,MAIN SERVICE WATER LOOP SUPPLY INLET BRANCH,PUMP:CONSTANTSPEED,MAIN SERVICE WATER LOOP CIRCULATOR PUMP,MAIN SERVICE WATER LOOP SUPPLY INLET NODE,MAIN SERVICE WATER LOOP CIRCULATOR PUMP OUTLET WATER NODE,Water Nodes
 Component Set,26,BRANCH,MAIN SERVICE WATER LOOP SUPPLY BRANCH 1,WATERHEATER:MIXED,17GAL ELECTRICITY WATER HEATER - 11KBTU/HR 1 THERM EFF,17GAL ELECTRICITY WATER HEATER - 11KBTU/HR 1 THERM EFF SUPPLY INLET WATER NODE,17GAL ELECTRICITY WATER HEATER - 11KBTU/HR 1 THERM EFF SUPPLY OUTLET WATER NODE,Use Side Water Nodes
 Component Set,27,BRANCH,MAIN SERVICE WATER LOOP SUPPLY BRANCH 2,PIPE:ADIABATIC,PIPE ADIABATIC 1,PIPE ADIABATIC 1 INLET WATER NODE,PIPE ADIABATIC 1 OUTLET WATER NODE,Pipe Nodes
 Component Set,28,BRANCH,MAIN SERVICE WATER LOOP SUPPLY OUTLET BRANCH,PIPE:ADIABATIC,PIPE ADIABATIC 3,PIPE ADIABATIC 3 INLET WATER NODE,MAIN SERVICE WATER LOOP SUPPLY OUTLET NODE,Pipe Nodes
 Component Set,29,BRANCH,MAIN SERVICE WATER LOOP DEMAND INLET BRANCH,PIPE:ADIABATIC,MAIN SERVICE WATER LOOP DEMAND INLET PIPE,MAIN SERVICE WATER LOOP DEMAND INLET NODE,MAIN SERVICE WATER LOOP DEMAND INLET PIPE NODE,Pipe Nodes
 Component Set,30,BRANCH,MAIN SERVICE WATER LOOP DEMAND BRANCH 1,PIPE:ADIABATIC,PIPE ADIABATIC 2,PIPE ADIABATIC 2 INLET WATER NODE,PIPE ADIABATIC 2 OUTLET WATER NODE,Pipe Nodes
 Component Set,31,BRANCH,MAIN SERVICE WATER LOOP DEMAND BRANCH 2,WATERUSE:CONNECTIONS,BACK_SPACE WUC 0.1GPM 140F,BACK_SPACE WUC 0.1GPM 140F INLET WATER NODE,BACK_SPACE WUC 0.1GPM 140F OUTLET WATER NODE,DHW Nodes
 Component Set,32,BRANCH,MAIN SERVICE WATER LOOP DEMAND BRANCH 3,WATERUSE:CONNECTIONS,CORE_RETAIL WUC 0.18GPM 140F,CORE_RETAIL WUC 0.18GPM 140F INLET WATER NODE,CORE_RETAIL WUC 0.18GPM 140F OUTLET WATER NODE,DHW Nodes
 Component Set,33,BRANCH,MAIN SERVICE WATER LOOP DEMAND BRANCH 4,WATERUSE:CONNECTIONS,FRONT_RETAIL WUC 0.02GPM 140F,FRONT_RETAIL WUC 0.02GPM 140F INLET WATER NODE,FRONT_RETAIL WUC 0.02GPM 140F OUTLET WATER NODE,DHW Nodes
 Component Set,34,BRANCH,MAIN SERVICE WATER LOOP DEMAND BRANCH 5,WATERUSE:CONNECTIONS,POINT_OF_SALE WUC 0.02GPM 140F,POINT_OF_SALE WUC 0.02GPM 140F INLET WATER NODE,POINT_OF_SALE WUC 0.02GPM 140F OUTLET WATER NODE,DHW Nodes
 Component Set,35,BRANCH,MAIN SERVICE WATER LOOP DEMAND BYPASS BRANCH,PIPE:ADIABATIC,MAIN SERVICE WATER LOOP DEMAND BYPASS PIPE,MAIN SERVICE WATER LOOP DEMAND BYPASS PIPE INLET NODE,MAIN SERVICE WATER LOOP DEMAND BYPASS PIPE OUTLET NODE,Pipe Nodes
 Component Set,36,BRANCH,MAIN SERVICE WATER LOOP DEMAND OUTLET BRANCH,PIPE:ADIABATIC,PIPE ADIABATIC 4,PIPE ADIABATIC 4 INLET WATER NODE,MAIN SERVICE WATER LOOP DEMAND OUTLET NODE,Pipe Nodes
 Component Set,37,ZONEHVAC:AIRDISTRIBUTIONUNIT,ADU AIR TERMINAL SINGLE DUCT CONSTANT VOLUME NO REHEAT 4,AIRTERMINAL:SINGLEDUCT:CONSTANTVOLUME:NOREHEAT,AIR TERMINAL SINGLE DUCT CONSTANT VOLUME NO REHEAT 4,AIR TERMINAL SINGLE DUCT CONSTANT VOLUME NO REHEAT 4 INLET AIR NODE,AIR TERMINAL SINGLE DUCT CONSTANT VOLUME NO REHEAT 4 OUTLET AIR NODE,Air Nodes
 Component Set,38,ZONEHVAC:AIRDISTRIBUTIONUNIT,ADU AIR TERMINAL SINGLE DUCT CONSTANT VOLUME NO REHEAT 2,AIRTERMINAL:SINGLEDUCT:CONSTANTVOLUME:NOREHEAT,AIR TERMINAL SINGLE DUCT CONSTANT VOLUME NO REHEAT 2,AIR TERMINAL SINGLE DUCT CONSTANT VOLUME NO REHEAT 2 INLET AIR NODE,AIR TERMINAL SINGLE DUCT CONSTANT VOLUME NO REHEAT 2 OUTLET AIR NODE,Air Nodes
 Component Set,39,ZONEHVAC:AIRDISTRIBUTIONUNIT,ADU AIR TERMINAL SINGLE DUCT CONSTANT VOLUME NO REHEAT 3,AIRTERMINAL:SINGLEDUCT:CONSTANTVOLUME:NOREHEAT,AIR TERMINAL SINGLE DUCT CONSTANT VOLUME NO REHEAT 3,AIR TERMINAL SINGLE DUCT CONSTANT VOLUME NO REHEAT 3 INLET AIR NODE,AIR TERMINAL SINGLE DUCT CONSTANT VOLUME NO REHEAT 3 OUTLET AIR NODE,Air Nodes
 Component Set,40,ZONEHVAC:AIRDISTRIBUTIONUNIT,ADU AIR TERMINAL SINGLE DUCT CONSTANT VOLUME NO REHEAT 5,AIRTERMINAL:SINGLEDUCT:CONSTANTVOLUME:NOREHEAT,AIR TERMINAL SINGLE DUCT CONSTANT VOLUME NO REHEAT 5,AIR TERMINAL SINGLE DUCT CONSTANT VOLUME NO REHEAT 5 INLET AIR NODE,AIR TERMINAL SINGLE DUCT CONSTANT VOLUME NO REHEAT 5 OUTLET AIR NODE,Air Nodes
 Component Set,41,ZONEHVAC:AIRDISTRIBUTIONUNIT,ADU AIR TERMINAL SINGLE DUCT CONSTANT VOLUME NO REHEAT 1,AIRTERMINAL:SINGLEDUCT:CONSTANTVOLUME:NOREHEAT,AIR TERMINAL SINGLE DUCT CONSTANT VOLUME NO REHEAT 1,AIR TERMINAL SINGLE DUCT CONSTANT VOLUME NO REHEAT 1 INLET AIR NODE,AIR TERMINAL SINGLE DUCT CONSTANT VOLUME NO REHEAT 1 OUTLET AIR NODE,Air Nodes
 Component Set,42,AIRLOOPHVAC:OUTDOORAIRSYSTEM,AIR LOOP HVAC OUTDOOR AIR SYSTEM 2,OUTDOORAIR:MIXER,AIR LOOP HVAC OUTDOOR AIR SYSTEM 2 OUTDOOR AIR MIXER,SYS_3|MIXED|SHR>NONE|SC>DX|SH>C-E|SSF>CV|ZH>B-E|ZC>NONE|SRF>NONE| OUTDOOR AIR NODE,SYS_3|MIXED|SHR>NONE|SC>DX|SH>C-E|SSF>CV|ZH>B-E|ZC>NONE|SRF>NONE| MIXED AIR NODE,Air Nodes
 Component Set,43,AIRLOOPHVAC:OUTDOORAIRSYSTEM,AIR LOOP HVAC OUTDOOR AIR SYSTEM 3,OUTDOORAIR:MIXER,AIR LOOP HVAC OUTDOOR AIR SYSTEM 3 OUTDOOR AIR MIXER,SYS_3|MIXED|SHR>NONE|SC>DX|SH>C-E|SSF>CV|ZH>B-E|ZC>NONE|SRF>NONE| 1 OUTDOOR AIR NODE,SYS_3|MIXED|SHR>NONE|SC>DX|SH>C-E|SSF>CV|ZH>B-E|ZC>NONE|SRF>NONE| 1 MIXED AIR NODE,Air Nodes
 Component Set,44,AIRLOOPHVAC:OUTDOORAIRSYSTEM,AIR LOOP HVAC OUTDOOR AIR SYSTEM 4,OUTDOORAIR:MIXER,AIR LOOP HVAC OUTDOOR AIR SYSTEM 4 OUTDOOR AIR MIXER,SYS_3|MIXED|SHR>NONE|SC>DX|SH>C-E|SSF>CV|ZH>B-E|ZC>NONE|SRF>NONE| 2 OUTDOOR AIR NODE,SYS_3|MIXED|SHR>NONE|SC>DX|SH>C-E|SSF>CV|ZH>B-E|ZC>NONE|SRF>NONE| 2 MIXED AIR NODE,Air Nodes
 Component Set,45,AIRLOOPHVAC:OUTDOORAIRSYSTEM,AIR LOOP HVAC OUTDOOR AIR SYSTEM 5,OUTDOORAIR:MIXER,AIR LOOP HVAC OUTDOOR AIR SYSTEM 5 OUTDOOR AIR MIXER,SYS_3|MIXED|SHR>NONE|SC>DX|SH>C-E|SSF>CV|ZH>B-E|ZC>NONE|SRF>NONE| 3 OUTDOOR AIR NODE,SYS_3|MIXED|SHR>NONE|SC>DX|SH>C-E|SSF>CV|ZH>B-E|ZC>NONE|SRF>NONE| 3 MIXED AIR NODE,Air Nodes
 Component Set,46,AIRLOOPHVAC:OUTDOORAIRSYSTEM,AIR LOOP HVAC OUTDOOR AIR SYSTEM 1,OUTDOORAIR:MIXER,AIR LOOP HVAC OUTDOOR AIR SYSTEM 1 OUTDOOR AIR MIXER,SYS_4|MIXED|SHR>NONE|SC>DX|SH>C-E|SSF>CV|ZH>B-E|ZC>NONE|SRF>NONE| OUTDOOR AIR NODE,SYS_4|MIXED|SHR>NONE|SC>DX|SH>C-E|SSF>CV|ZH>B-E|ZC>NONE|SRF>NONE| MIXED AIR NODE,Air Nodes
 Component Set,47,COILSYSTEM:COOLING:DX,COILCOOLINGDXSINGLESPEED_DX 1 58KBTU/HR 7.7726EER COILSYSTEM,COIL:COOLING:DX:SINGLESPEED,COILCOOLINGDXSINGLESPEED_DX 1 58KBTU/HR 7.7726EER,SYS_3|MIXED|SHR>NONE|SC>DX|SH>C-E|SSF>CV|ZH>B-E|ZC>NONE|SRF>NONE| MIXED AIR NODE,COILCOOLINGDXSINGLESPEED_DX 1 58KBTU/HR 7.7726EER OUTLET AIR NODE,Air Nodes
 Component Set,48,COILSYSTEM:COOLING:DX,COILCOOLINGDXSINGLESPEED_DX 2 58KBTU/HR 7.7726EER COILSYSTEM,COIL:COOLING:DX:SINGLESPEED,COILCOOLINGDXSINGLESPEED_DX 2 58KBTU/HR 7.7726EER,SYS_3|MIXED|SHR>NONE|SC>DX|SH>C-E|SSF>CV|ZH>B-E|ZC>NONE|SRF>NONE| 1 MIXED AIR NODE,COILCOOLINGDXSINGLESPEED_DX 2 58KBTU/HR 7.7726EER OUTLET AIR NODE,Air Nodes
 Component Set,49,COILSYSTEM:COOLING:DX,COILCOOLINGDXSINGLESPEED_DX 3 10KBTU/HR 7.7726EER COILSYSTEM,COIL:COOLING:DX:SINGLESPEED,COILCOOLINGDXSINGLESPEED_DX 3 10KBTU/HR 7.7726EER,SYS_3|MIXED|SHR>NONE|SC>DX|SH>C-E|SSF>CV|ZH>B-E|ZC>NONE|SRF>NONE| 2 MIXED AIR NODE,COILCOOLINGDXSINGLESPEED_DX 3 10KBTU/HR 7.7726EER OUTLET AIR NODE,Air Nodes
 Component Set,50,COILSYSTEM:COOLING:DX,COILCOOLINGDXSINGLESPEED_DX 4 235KBTU/HR 7.7726EER COILSYSTEM,COIL:COOLING:DX:SINGLESPEED,COILCOOLINGDXSINGLESPEED_DX 4 235KBTU/HR 7.7726EER,SYS_3|MIXED|SHR>NONE|SC>DX|SH>C-E|SSF>CV|ZH>B-E|ZC>NONE|SRF>NONE| 3 MIXED AIR NODE,COILCOOLINGDXSINGLESPEED_DX 4 235KBTU/HR 7.7726EER OUTLET AIR NODE,Air Nodes
 Component Set,51,COILSYSTEM:COOLING:DX,COILCOOLINGDXSINGLESPEED_DX 18KBTU/HR 7.7726EER COILSYSTEM,COIL:COOLING:DX:SINGLESPEED,COILCOOLINGDXSINGLESPEED_DX 18KBTU/HR 7.7726EER,SYS_4|MIXED|SHR>NONE|SC>DX|SH>C-E|SSF>CV|ZH>B-E|ZC>NONE|SRF>NONE| MIXED AIR NODE,COILCOOLINGDXSINGLESPEED_DX 18KBTU/HR 7.7726EER OUTLET AIR NODE,Air Nodes
! ===============================================================
! <# Plant Loops>,<Number of Plant Loops>
 #Plant Loops,1
! <Plant Loop>,<Plant Loop Name>,<Loop Type>,<Inlet Node Name>,<Outlet Node Name>,<Branch List>,<Connector List>
! <Plant Loop Connector>,<Connector Type>,<Connector Name>,<Loop Name>,<Loop Type>,<Number of Inlets/Outlets>
! <Plant Loop Connector Branches>,<Connector Node Count>,<Connector Type>,<Connector Name>,<Inlet Branch>,<Outlet Branch>,<Loop Name>,<Loop Type>
! <Plant Loop Connector Nodes>,<Connector Node Count>,<Connector Type>,<Connector Name>,<Inlet Node>,<Outlet Node>,<Loop Name>,<Loop Type>
! <Plant Loop Supply Connection>,<Plant Loop Name>,<Supply Side Outlet Node Name>,<Demand Side Inlet Node Name>
! <Plant Loop Return Connection>,<Plant Loop Name>,<Demand Side Outlet Node Name>,<Supply Side Inlet Node Name>
 Plant Loop,MAIN SERVICE WATER LOOP,Demand,MAIN SERVICE WATER LOOP DEMAND INLET NODE,MAIN SERVICE WATER LOOP DEMAND OUTLET NODE,MAIN SERVICE WATER LOOP DEMAND BRANCHES,MAIN SERVICE WATER LOOP DEMAND CONNECTOR LIST
   Plant Loop Connector,Splitter,MAIN SERVICE WATER LOOP DEMAND SPLITTER,MAIN SERVICE WATER LOOP,Demand,6
     Plant Loop Connector Branches,1,Splitter,MAIN SERVICE WATER LOOP DEMAND SPLITTER,MAIN SERVICE WATER LOOP DEMAND INLET BRANCH,MAIN SERVICE WATER LOOP DEMAND BRANCH 1,MAIN SERVICE WATER LOOP,Demand
     Plant Loop Connector Nodes,   1,Splitter,MAIN SERVICE WATER LOOP DEMAND SPLITTER,MAIN SERVICE WATER LOOP DEMAND INLET PIPE NODE,PIPE ADIABATIC 2 INLET WATER NODE,MAIN SERVICE WATER LOOP,Demand
     Plant Loop Connector Branches,2,Splitter,MAIN SERVICE WATER LOOP DEMAND SPLITTER,MAIN SERVICE WATER LOOP DEMAND INLET BRANCH,MAIN SERVICE WATER LOOP DEMAND BRANCH 2,MAIN SERVICE WATER LOOP,Demand
     Plant Loop Connector Nodes,   2,Splitter,MAIN SERVICE WATER LOOP DEMAND SPLITTER,MAIN SERVICE WATER LOOP DEMAND INLET PIPE NODE,BACK_SPACE WUC 0.1GPM 140F INLET WATER NODE,MAIN SERVICE WATER LOOP,Demand
     Plant Loop Connector Branches,3,Splitter,MAIN SERVICE WATER LOOP DEMAND SPLITTER,MAIN SERVICE WATER LOOP DEMAND INLET BRANCH,MAIN SERVICE WATER LOOP DEMAND BRANCH 3,MAIN SERVICE WATER LOOP,Demand
     Plant Loop Connector Nodes,   3,Splitter,MAIN SERVICE WATER LOOP DEMAND SPLITTER,MAIN SERVICE WATER LOOP DEMAND INLET PIPE NODE,CORE_RETAIL WUC 0.18GPM 140F INLET WATER NODE,MAIN SERVICE WATER LOOP,Demand
     Plant Loop Connector Branches,4,Splitter,MAIN SERVICE WATER LOOP DEMAND SPLITTER,MAIN SERVICE WATER LOOP DEMAND INLET BRANCH,MAIN SERVICE WATER LOOP DEMAND BRANCH 4,MAIN SERVICE WATER LOOP,Demand
     Plant Loop Connector Nodes,   4,Splitter,MAIN SERVICE WATER LOOP DEMAND SPLITTER,MAIN SERVICE WATER LOOP DEMAND INLET PIPE NODE,FRONT_RETAIL WUC 0.02GPM 140F INLET WATER NODE,MAIN SERVICE WATER LOOP,Demand
     Plant Loop Connector Branches,5,Splitter,MAIN SERVICE WATER LOOP DEMAND SPLITTER,MAIN SERVICE WATER LOOP DEMAND INLET BRANCH,MAIN SERVICE WATER LOOP DEMAND BRANCH 5,MAIN SERVICE WATER LOOP,Demand
     Plant Loop Connector Nodes,   5,Splitter,MAIN SERVICE WATER LOOP DEMAND SPLITTER,MAIN SERVICE WATER LOOP DEMAND INLET PIPE NODE,POINT_OF_SALE WUC 0.02GPM 140F INLET WATER NODE,MAIN SERVICE WATER LOOP,Demand
     Plant Loop Connector Branches,6,Splitter,MAIN SERVICE WATER LOOP DEMAND SPLITTER,MAIN SERVICE WATER LOOP DEMAND INLET BRANCH,MAIN SERVICE WATER LOOP DEMAND BYPASS BRANCH,MAIN SERVICE WATER LOOP,Demand
     Plant Loop Connector Nodes,   6,Splitter,MAIN SERVICE WATER LOOP DEMAND SPLITTER,MAIN SERVICE WATER LOOP DEMAND INLET PIPE NODE,MAIN SERVICE WATER LOOP DEMAND BYPASS PIPE INLET NODE,MAIN SERVICE WATER LOOP,Demand
   Plant Loop Connector,Mixer,MAIN SERVICE WATER LOOP DEMAND MIXER,MAIN SERVICE WATER LOOP,Demand,6
     Plant Loop Connector Branches,1,Mixer,MAIN SERVICE WATER LOOP DEMAND MIXER,MAIN SERVICE WATER LOOP DEMAND BRANCH 1,MAIN SERVICE WATER LOOP DEMAND OUTLET BRANCH,MAIN SERVICE WATER LOOP,Demand
     Plant Loop Connector Nodes,   1,Mixer,MAIN SERVICE WATER LOOP DEMAND MIXER,PIPE ADIABATIC 2 OUTLET WATER NODE,PIPE ADIABATIC 4 INLET WATER NODE,MAIN SERVICE WATER LOOP,Demand
     Plant Loop Connector Branches,2,Mixer,MAIN SERVICE WATER LOOP DEMAND MIXER,MAIN SERVICE WATER LOOP DEMAND BRANCH 2,MAIN SERVICE WATER LOOP DEMAND OUTLET BRANCH,MAIN SERVICE WATER LOOP,Demand
     Plant Loop Connector Nodes,   2,Mixer,MAIN SERVICE WATER LOOP DEMAND MIXER,BACK_SPACE WUC 0.1GPM 140F OUTLET WATER NODE,PIPE ADIABATIC 4 INLET WATER NODE,MAIN SERVICE WATER LOOP,Demand
     Plant Loop Connector Branches,3,Mixer,MAIN SERVICE WATER LOOP DEMAND MIXER,MAIN SERVICE WATER LOOP DEMAND BRANCH 3,MAIN SERVICE WATER LOOP DEMAND OUTLET BRANCH,MAIN SERVICE WATER LOOP,Demand
     Plant Loop Connector Nodes,   3,Mixer,MAIN SERVICE WATER LOOP DEMAND MIXER,CORE_RETAIL WUC 0.18GPM 140F OUTLET WATER NODE,PIPE ADIABATIC 4 INLET WATER NODE,MAIN SERVICE WATER LOOP,Demand
     Plant Loop Connector Branches,4,Mixer,MAIN SERVICE WATER LOOP DEMAND MIXER,MAIN SERVICE WATER LOOP DEMAND BRANCH 4,MAIN SERVICE WATER LOOP DEMAND OUTLET BRANCH,MAIN SERVICE WATER LOOP,Demand
     Plant Loop Connector Nodes,   4,Mixer,MAIN SERVICE WATER LOOP DEMAND MIXER,FRONT_RETAIL WUC 0.02GPM 140F OUTLET WATER NODE,PIPE ADIABATIC 4 INLET WATER NODE,MAIN SERVICE WATER LOOP,Demand
     Plant Loop Connector Branches,5,Mixer,MAIN SERVICE WATER LOOP DEMAND MIXER,MAIN SERVICE WATER LOOP DEMAND BRANCH 5,MAIN SERVICE WATER LOOP DEMAND OUTLET BRANCH,MAIN SERVICE WATER LOOP,Demand
     Plant Loop Connector Nodes,   5,Mixer,MAIN SERVICE WATER LOOP DEMAND MIXER,POINT_OF_SALE WUC 0.02GPM 140F OUTLET WATER NODE,PIPE ADIABATIC 4 INLET WATER NODE,MAIN SERVICE WATER LOOP,Demand
     Plant Loop Connector Branches,6,Mixer,MAIN SERVICE WATER LOOP DEMAND MIXER,MAIN SERVICE WATER LOOP DEMAND BYPASS BRANCH,MAIN SERVICE WATER LOOP DEMAND OUTLET BRANCH,MAIN SERVICE WATER LOOP,Demand
     Plant Loop Connector Nodes,   6,Mixer,MAIN SERVICE WATER LOOP DEMAND MIXER,MAIN SERVICE WATER LOOP DEMAND BYPASS PIPE OUTLET NODE,PIPE ADIABATIC 4 INLET WATER NODE,MAIN SERVICE WATER LOOP,Demand
 Plant Loop,MAIN SERVICE WATER LOOP,Supply,MAIN SERVICE WATER LOOP SUPPLY INLET NODE,MAIN SERVICE WATER LOOP SUPPLY OUTLET NODE,MAIN SERVICE WATER LOOP SUPPLY BRANCHES,MAIN SERVICE WATER LOOP SUPPLY CONNECTOR LIST
   Plant Loop Connector,Splitter,MAIN SERVICE WATER LOOP SUPPLY SPLITTER,MAIN SERVICE WATER LOOP,Supply,2
     Plant Loop Connector Branches,1,Splitter,MAIN SERVICE WATER LOOP SUPPLY SPLITTER,MAIN SERVICE WATER LOOP SUPPLY INLET BRANCH,MAIN SERVICE WATER LOOP SUPPLY BRANCH 1,MAIN SERVICE WATER LOOP,Supply
     Plant Loop Connector Nodes,   1,Splitter,MAIN SERVICE WATER LOOP SUPPLY SPLITTER,MAIN SERVICE WATER LOOP CIRCULATOR PUMP OUTLET WATER NODE,17GAL ELECTRICITY WATER HEATER - 11KBTU/HR 1 THERM EFF SUPPLY INLET WATER NODE,MAIN SERVICE WATER LOOP,Supply
     Plant Loop Connector Branches,2,Splitter,MAIN SERVICE WATER LOOP SUPPLY SPLITTER,MAIN SERVICE WATER LOOP SUPPLY INLET BRANCH,MAIN SERVICE WATER LOOP SUPPLY BRANCH 2,MAIN SERVICE WATER LOOP,Supply
     Plant Loop Connector Nodes,   2,Splitter,MAIN SERVICE WATER LOOP SUPPLY SPLITTER,MAIN SERVICE WATER LOOP CIRCULATOR PUMP OUTLET WATER NODE,PIPE ADIABATIC 1 INLET WATER NODE,MAIN SERVICE WATER LOOP,Supply
   Plant Loop Connector,Mixer,MAIN SERVICE WATER LOOP SUPPLY MIXER,MAIN SERVICE WATER LOOP,Supply,2
     Plant Loop Connector Branches,1,Mixer,MAIN SERVICE WATER LOOP SUPPLY MIXER,MAIN SERVICE WATER LOOP SUPPLY BRANCH 1,MAIN SERVICE WATER LOOP SUPPLY OUTLET BRANCH,MAIN SERVICE WATER LOOP,Supply
     Plant Loop Connector Nodes,   1,Mixer,MAIN SERVICE WATER LOOP SUPPLY MIXER,17GAL ELECTRICITY WATER HEATER - 11KBTU/HR 1 THERM EFF SUPPLY OUTLET WATER NODE,PIPE ADIABATIC 3 INLET WATER NODE,MAIN SERVICE WATER LOOP,Supply
     Plant Loop Connector Branches,2,Mixer,MAIN SERVICE WATER LOOP SUPPLY MIXER,MAIN SERVICE WATER LOOP SUPPLY BRANCH 2,MAIN SERVICE WATER LOOP SUPPLY OUTLET BRANCH,MAIN SERVICE WATER LOOP,Supply
     Plant Loop Connector Nodes,   2,Mixer,MAIN SERVICE WATER LOOP SUPPLY MIXER,PIPE ADIABATIC 1 OUTLET WATER NODE,PIPE ADIABATIC 3 INLET WATER NODE,MAIN SERVICE WATER LOOP,Supply
 Plant Loop Supply Connection,MAIN SERVICE WATER LOOP,MAIN SERVICE WATER LOOP SUPPLY OUTLET NODE,MAIN SERVICE WATER LOOP DEMAND INLET NODE
 Plant Loop Return Connection,MAIN SERVICE WATER LOOP,MAIN SERVICE WATER LOOP DEMAND OUTLET NODE,MAIN SERVICE WATER LOOP SUPPLY INLET NODE
! ===============================================================
! <# Condenser Loops>,<Number of Condenser Loops>
 #Condenser Loops,0
! <Condenser Loop>,<Condenser Loop Name>,<Loop Type>,<Inlet Node Name>,<Outlet Node Name>,<Branch List>,<Connector List>
! <Condenser Loop Connector>,<Connector Type>,<Connector Name>,<Loop Name>,<Loop Type>,<Number of Inlets/Outlets>
! <Condenser Loop Connector Branches>,<Connector Node Count>,<Connector Type>,<Connector Name>,<Inlet Branch>,<Outlet Branch>,<Loop Name>,<Loop Type>
! <Condenser Loop Connector Nodes>,<Connector Node Count>,<Connector Type>,<Connector Name>,<Inlet Node>,<Outlet Node>,<Loop Name>,<Loop Type>
! <Condenser Loop Supply Connection>,<Condenser Loop Name>,<Supply Side Outlet Node Name>,<Demand Side Inlet Node Name>
! <Condenser Loop Return Connection>,<Condenser Loop Name>,<Demand Side Outlet Node Name>,<Supply Side Inlet Node Name>
! ===============================================================
! <# Controlled Zones>,<Number of Controlled Zones>
 #Controlled Zones,5
! <Controlled Zone>,<Controlled Zone Name>,<Equip List Name>,<Control List Name>,<Zone Node Name>,<# Inlet Nodes>,<# Exhaust Nodes>,<# Return Nodes>
! <Controlled Zone Inlet>,<Inlet Node Count>,<Controlled Zone Name>,<Supply Air Inlet Node Name>,<SD Sys:Cooling/Heating [DD:Cooling] Inlet Node Name>,<DD Sys:Heating Inlet Node Name>
! <Controlled Zone Exhaust>,<Exhaust Node Count>,<Controlled Zone Name>,<Exhaust Air Node Name>
 Controlled Zone,ALL_ST=LOBBY - ELEVATOR_FL=BUILDING STORY 1_SCH=C,ALL_ST=LOBBY - ELEVATOR_FL=BUILDING STORY 1_SCH=C EQUIPMENT LIST,,ALL_ST=LOBBY - ELEVATOR_FL=BUILDING STORY 1_SCH=C ZONE AIR NODE,1,0,1
   Controlled Zone Inlet,1,ALL_ST=LOBBY - ELEVATOR_FL=BUILDING STORY 1_SCH=C,AIR TERMINAL SINGLE DUCT CONSTANT VOLUME NO REHEAT 4 OUTLET AIR NODE,AIR TERMINAL SINGLE DUCT CONSTANT VOLUME NO REHEAT 4 INLET AIR NODE,N/A
   Controlled Zone Return,1,ALL_ST=LOBBY - ELEVATOR_FL=BUILDING STORY 1_SCH=C,ALL_ST=LOBBY - ELEVATOR_FL=BUILDING STORY 1_SCH=C RETURN AIR NODE
 Controlled Zone,ALL_ST=RETAIL - SALES_FL=BUILDING STORY 1_SCH=C,ALL_ST=RETAIL - SALES_FL=BUILDING STORY 1_SCH=C EQUIPMENT LIST,,ALL_ST=RETAIL - SALES_FL=BUILDING STORY 1_SCH=C ZONE AIR NODE,1,0,1
   Controlled Zone Inlet,1,ALL_ST=RETAIL - SALES_FL=BUILDING STORY 1_SCH=C,AIR TERMINAL SINGLE DUCT CONSTANT VOLUME NO REHEAT 2 OUTLET AIR NODE,AIR TERMINAL SINGLE DUCT CONSTANT VOLUME NO REHEAT 2 INLET AIR NODE,N/A
   Controlled Zone Return,1,ALL_ST=RETAIL - SALES_FL=BUILDING STORY 1_SCH=C,ALL_ST=RETAIL - SALES_FL=BUILDING STORY 1_SCH=C RETURN AIR NODE
 Controlled Zone,ALL_ST=RETAIL - SALES_FL=BUILDING STORY 1_SCH=C 1,ALL_ST=RETAIL - SALES_FL=BUILDING STORY 1_SCH=C 1 EQUIPMENT LIST,,ALL_ST=RETAIL - SALES_FL=BUILDING STORY 1_SCH=C 1 ZONE AIR NODE,1,0,1
   Controlled Zone Inlet,1,ALL_ST=RETAIL - SALES_FL=BUILDING STORY 1_SCH=C 1,AIR TERMINAL SINGLE DUCT CONSTANT VOLUME NO REHEAT 3 OUTLET AIR NODE,AIR TERMINAL SINGLE DUCT CONSTANT VOLUME NO REHEAT 3 INLET AIR NODE,N/A
   Controlled Zone Return,1,ALL_ST=RETAIL - SALES_FL=BUILDING STORY 1_SCH=C 1,ALL_ST=RETAIL - SALES_FL=BUILDING STORY 1_SCH=C 1 RETURN AIR NODE
 Controlled Zone,ALL_ST=RETAIL - SALES_FL=BUILDING STORY 1_SCH=C 2,ALL_ST=RETAIL - SALES_FL=BUILDING STORY 1_SCH=C 2 EQUIPMENT LIST,,ALL_ST=RETAIL - SALES_FL=BUILDING STORY 1_SCH=C 2 ZONE AIR NODE,1,0,1
   Controlled Zone Inlet,1,ALL_ST=RETAIL - SALES_FL=BUILDING STORY 1_SCH=C 2,AIR TERMINAL SINGLE DUCT CONSTANT VOLUME NO REHEAT 5 OUTLET AIR NODE,AIR TERMINAL SINGLE DUCT CONSTANT VOLUME NO REHEAT 5 INLET AIR NODE,N/A
   Controlled Zone Return,1,ALL_ST=RETAIL - SALES_FL=BUILDING STORY 1_SCH=C 2,ALL_ST=RETAIL - SALES_FL=BUILDING STORY 1_SCH=C 2 RETURN AIR NODE
 Controlled Zone,ALL_ST=STORAGE AREA_FL=BUILDING STORY 1_SCH=E,ALL_ST=STORAGE AREA_FL=BUILDING STORY 1_SCH=E EQUIPMENT LIST,,ALL_ST=STORAGE AREA_FL=BUILDING STORY 1_SCH=E ZONE AIR NODE,1,1,1
   Controlled Zone Inlet,1,ALL_ST=STORAGE AREA_FL=BUILDING STORY 1_SCH=E,AIR TERMINAL SINGLE DUCT CONSTANT VOLUME NO REHEAT 1 OUTLET AIR NODE,AIR TERMINAL SINGLE DUCT CONSTANT VOLUME NO REHEAT 1 INLET AIR NODE,N/A
   Controlled Zone Exhaust,1,ALL_ST=STORAGE AREA_FL=BUILDING STORY 1_SCH=E,SYS_4_ZONE_EXHAUST_FAN INLET AIR NODE
   Controlled Zone Return,1,ALL_ST=STORAGE AREA_FL=BUILDING STORY 1_SCH=E,ALL_ST=STORAGE AREA_FL=BUILDING STORY 1_SCH=E RETURN AIR NODE
! ===============================================================
! <#Zone Equipment Lists>,<Number of Zone Equipment Lists>
 #Zone Equipment Lists,5
! <Zone Equipment List>,<Zone Equipment List Count>,<Zone Equipment List Name>,<Zone Name>,<Number of Components>
! <Zone Equipment Component>,<Component Count>,<Component Type>,<Component Name>,<Zone Name>,<Heating Priority>,<Cooling Priority>
 Zone Equipment List,1,ALL_ST=LOBBY - ELEVATOR_FL=BUILDING STORY 1_SCH=C EQUIPMENT LIST,ALL_ST=LOBBY - ELEVATOR_FL=BUILDING STORY 1_SCH=C,2
   Zone Equipment Component,1,ZONEHVAC:AIRDISTRIBUTIONUNIT,ADU AIR TERMINAL SINGLE DUCT CONSTANT VOLUME NO REHEAT 4,ALL_ST=LOBBY - ELEVATOR_FL=BUILDING STORY 1_SCH=C,1,1
   Zone Equipment Component,2,ZONEHVAC:BASEBOARD:CONVECTIVE:ELECTRIC,ZONE HVAC BASEBOARD CONVECTIVE ELECTRIC 4,ALL_ST=LOBBY - ELEVATOR_FL=BUILDING STORY 1_SCH=C,2,2
 Zone Equipment List,2,ALL_ST=RETAIL - SALES_FL=BUILDING STORY 1_SCH=C EQUIPMENT LIST,ALL_ST=RETAIL - SALES_FL=BUILDING STORY 1_SCH=C,2
   Zone Equipment Component,1,ZONEHVAC:AIRDISTRIBUTIONUNIT,ADU AIR TERMINAL SINGLE DUCT CONSTANT VOLUME NO REHEAT 2,ALL_ST=RETAIL - SALES_FL=BUILDING STORY 1_SCH=C,1,1
   Zone Equipment Component,2,ZONEHVAC:BASEBOARD:CONVECTIVE:ELECTRIC,ZONE HVAC BASEBOARD CONVECTIVE ELECTRIC 2,ALL_ST=RETAIL - SALES_FL=BUILDING STORY 1_SCH=C,2,2
 Zone Equipment List,3,ALL_ST=RETAIL - SALES_FL=BUILDING STORY 1_SCH=C 1 EQUIPMENT LIST,ALL_ST=RETAIL - SALES_FL=BUILDING STORY 1_SCH=C 1,2
   Zone Equipment Component,1,ZONEHVAC:AIRDISTRIBUTIONUNIT,ADU AIR TERMINAL SINGLE DUCT CONSTANT VOLUME NO REHEAT 3,ALL_ST=RETAIL - SALES_FL=BUILDING STORY 1_SCH=C 1,1,1
   Zone Equipment Component,2,ZONEHVAC:BASEBOARD:CONVECTIVE:ELECTRIC,ZONE HVAC BASEBOARD CONVECTIVE ELECTRIC 3,ALL_ST=RETAIL - SALES_FL=BUILDING STORY 1_SCH=C 1,2,2
 Zone Equipment List,4,ALL_ST=RETAIL - SALES_FL=BUILDING STORY 1_SCH=C 2 EQUIPMENT LIST,ALL_ST=RETAIL - SALES_FL=BUILDING STORY 1_SCH=C 2,2
   Zone Equipment Component,1,ZONEHVAC:AIRDISTRIBUTIONUNIT,ADU AIR TERMINAL SINGLE DUCT CONSTANT VOLUME NO REHEAT 5,ALL_ST=RETAIL - SALES_FL=BUILDING STORY 1_SCH=C 2,1,1
   Zone Equipment Component,2,ZONEHVAC:BASEBOARD:CONVECTIVE:ELECTRIC,ZONE HVAC BASEBOARD CONVECTIVE ELECTRIC 5,ALL_ST=RETAIL - SALES_FL=BUILDING STORY 1_SCH=C 2,2,2
 Zone Equipment List,5,ALL_ST=STORAGE AREA_FL=BUILDING STORY 1_SCH=E EQUIPMENT LIST,ALL_ST=STORAGE AREA_FL=BUILDING STORY 1_SCH=E,3
   Zone Equipment Component,1,ZONEHVAC:AIRDISTRIBUTIONUNIT,ADU AIR TERMINAL SINGLE DUCT CONSTANT VOLUME NO REHEAT 1,ALL_ST=STORAGE AREA_FL=BUILDING STORY 1_SCH=E,1,1
   Zone Equipment Component,2,ZONEHVAC:BASEBOARD:CONVECTIVE:ELECTRIC,ZONE HVAC BASEBOARD CONVECTIVE ELECTRIC 1,ALL_ST=STORAGE AREA_FL=BUILDING STORY 1_SCH=E,2,2
   Zone Equipment Component,3,FAN:ZONEEXHAUST,SYS_4_ZONE_EXHAUST_FAN,ALL_ST=STORAGE AREA_FL=BUILDING STORY 1_SCH=E,3,3
! ===============================================================
! <#AirLoopHVACs>,<Number of AirLoopHVACs>
 #AirLoopHVACs,5
! <AirLoopHVAC>,<Air Loop Name>,<# Return Nodes>,<# Supply Nodes>,<# Zones Cooled>,<# Zones Heated>,<Outdoor Air Used>
! <AirLoop Return Connections>,<Connection Count>,<AirLoopHVAC Name>,<Zn Eqp Return Node #>,<Zn Eqp Return Node Name>,<AirLoop Return Node #>,<Air Loop Return Node Name>
! <AirLoop Supply Connections>,<Connection Count>,<AirLoopHVAC Name>,<Zn Eqp Supply Node #>,<Zn Eqp Supply Node Name>,<AirLoop Supply Node #>,<Air Loop Supply Node Name>
! <Cooled Zone Info>,<Cooled Zone Count>,<Cooled Zone Name>,<Cooled Zone Inlet Node #>,<Cooled Zone Inlet Node Name>,<AirLoopHVAC Name>
! <Heated Zone Info>,<Heated Zone Count>,<Heated Zone Name>,<Heated Zone Inlet Node #>,<Heated Zone Inlet Node Name>,<AirLoopHVAC Name>
! <Outdoor Air Connections>,<OA Inlet Node #>,<OA Return Air Inlet Node Name>,<OA Outlet Node #>,<OA Mixed Air Outlet Node Name>,<AirLoopHVAC Name>
! <AirLoopHVAC Connector>,<Connector Type>,<Connector Name>,<Loop Name>,<Loop Type>,<Number of Inlets/Outlets>
! <AirLoopHVAC Connector Branches>,<Connector Node Count>,<Connector Type>,<Connector Name>,<Inlet Branch>,<Outlet Branch>,<Loop Name>,<Loop Type>
! <AirLoopHVAC Connector Nodes>,<Connector Node Count>,<Connector Type>,<Connector Name>,<Inlet Node>,<Outlet Node>,<Loop Name>,<Loop Type>
 AirLoopHVAC,SYS_3|MIXED|SHR>NONE|SC>DX|SH>C-E|SSF>CV|ZH>B-E|ZC>NONE|SRF>NONE|,1,1,1,0,Yes
   AirLoop Return Connections,1,SYS_3|MIXED|SHR>NONE|SC>DX|SH>C-E|SSF>CV|ZH>B-E|ZC>NONE|SRF>NONE|,75,SYS_3|MIXED|SHR>NONE|SC>DX|SH>C-E|SSF>CV|ZH>B-E|ZC>NONE|SRF>NONE| DEMAND OUTLET NODE,22,SYS_3|MIXED|SHR>NONE|SC>DX|SH>C-E|SSF>CV|ZH>B-E|ZC>NONE|SRF>NONE| SUPPLY INLET NODE
   AirLoop Supply Connections,1,SYS_3|MIXED|SHR>NONE|SC>DX|SH>C-E|SSF>CV|ZH>B-E|ZC>NONE|SRF>NONE|,13,SYS_3|MIXED|SHR>NONE|SC>DX|SH>C-E|SSF>CV|ZH>B-E|ZC>NONE|SRF>NONE| DEMAND INLET NODE,12,SYS_3|MIXED|SHR>NONE|SC>DX|SH>C-E|SSF>CV|ZH>B-E|ZC>NONE|SRF>NONE| SUPPLY OUTLET NODE
   Cooled Zone Info,1,ALL_ST=RETAIL - SALES_FL=BUILDING STORY 1_SCH=C,3,AIR TERMINAL SINGLE DUCT CONSTANT VOLUME NO REHEAT 2 OUTLET AIR NODE,SYS_3|MIXED|SHR>NONE|SC>DX|SH>C-E|SSF>CV|ZH>B-E|ZC>NONE|SRF>NONE|
   Outdoor Air Connections,23,SYS3 RETURN FAN OUTLET AIR NODE,24,SYS_3|MIXED|SHR>NONE|SC>DX|SH>C-E|SSF>CV|ZH>B-E|ZC>NONE|SRF>NONE| MIXED AIR NODE,SYS_3|MIXED|SHR>NONE|SC>DX|SH>C-E|SSF>CV|ZH>B-E|ZC>NONE|SRF>NONE|
 AirLoopHVAC,SYS_3|MIXED|SHR>NONE|SC>DX|SH>C-E|SSF>CV|ZH>B-E|ZC>NONE|SRF>NONE| 1,1,1,1,0,Yes
   AirLoop Return Connections,1,SYS_3|MIXED|SHR>NONE|SC>DX|SH>C-E|SSF>CV|ZH>B-E|ZC>NONE|SRF>NONE| 1,76,SYS_3|MIXED|SHR>NONE|SC>DX|SH>C-E|SSF>CV|ZH>B-E|ZC>NONE|SRF>NONE| 1 DEMAND OUTLET NODE,27,SYS_3|MIXED|SHR>NONE|SC>DX|SH>C-E|SSF>CV|ZH>B-E|ZC>NONE|SRF>NONE| 1 SUPPLY INLET NODE
   AirLoop Supply Connections,1,SYS_3|MIXED|SHR>NONE|SC>DX|SH>C-E|SSF>CV|ZH>B-E|ZC>NONE|SRF>NONE| 1,15,SYS_3|MIXED|SHR>NONE|SC>DX|SH>C-E|SSF>CV|ZH>B-E|ZC>NONE|SRF>NONE| 1 DEMAND INLET NODE,14,SYS_3|MIXED|SHR>NONE|SC>DX|SH>C-E|SSF>CV|ZH>B-E|ZC>NONE|SRF>NONE| 1 SUPPLY OUTLET NODE
   Cooled Zone Info,1,ALL_ST=RETAIL - SALES_FL=BUILDING STORY 1_SCH=C 1,5,AIR TERMINAL SINGLE DUCT CONSTANT VOLUME NO REHEAT 3 OUTLET AIR NODE,SYS_3|MIXED|SHR>NONE|SC>DX|SH>C-E|SSF>CV|ZH>B-E|ZC>NONE|SRF>NONE| 1
   Outdoor Air Connections,28,SYS3 RETURN FAN 1 OUTLET AIR NODE,29,SYS_3|MIXED|SHR>NONE|SC>DX|SH>C-E|SSF>CV|ZH>B-E|ZC>NONE|SRF>NONE| 1 MIXED AIR NODE,SYS_3|MIXED|SHR>NONE|SC>DX|SH>C-E|SSF>CV|ZH>B-E|ZC>NONE|SRF>NONE| 1
 AirLoopHVAC,SYS_3|MIXED|SHR>NONE|SC>DX|SH>C-E|SSF>CV|ZH>B-E|ZC>NONE|SRF>NONE| 2,1,1,1,0,Yes
   AirLoop Return Connections,1,SYS_3|MIXED|SHR>NONE|SC>DX|SH>C-E|SSF>CV|ZH>B-E|ZC>NONE|SRF>NONE| 2,77,SYS_3|MIXED|SHR>NONE|SC>DX|SH>C-E|SSF>CV|ZH>B-E|ZC>NONE|SRF>NONE| 2 DEMAND OUTLET NODE,32,SYS_3|MIXED|SHR>NONE|SC>DX|SH>C-E|SSF>CV|ZH>B-E|ZC>NONE|SRF>NONE| 2 SUPPLY INLET NODE
   AirLoop Supply Connections,1,SYS_3|MIXED|SHR>NONE|SC>DX|SH>C-E|SSF>CV|ZH>B-E|ZC>NONE|SRF>NONE| 2,17,SYS_3|MIXED|SHR>NONE|SC>DX|SH>C-E|SSF>CV|ZH>B-E|ZC>NONE|SRF>NONE| 2 DEMAND INLET NODE,16,SYS_3|MIXED|SHR>NONE|SC>DX|SH>C-E|SSF>CV|ZH>B-E|ZC>NONE|SRF>NONE| 2 SUPPLY OUTLET NODE
   Cooled Zone Info,1,ALL_ST=LOBBY - ELEVATOR_FL=BUILDING STORY 1_SCH=C,1,AIR TERMINAL SINGLE DUCT CONSTANT VOLUME NO REHEAT 4 OUTLET AIR NODE,SYS_3|MIXED|SHR>NONE|SC>DX|SH>C-E|SSF>CV|ZH>B-E|ZC>NONE|SRF>NONE| 2
   Outdoor Air Connections,33,SYS3 RETURN FAN 2 OUTLET AIR NODE,34,SYS_3|MIXED|SHR>NONE|SC>DX|SH>C-E|SSF>CV|ZH>B-E|ZC>NONE|SRF>NONE| 2 MIXED AIR NODE,SYS_3|MIXED|SHR>NONE|SC>DX|SH>C-E|SSF>CV|ZH>B-E|ZC>NONE|SRF>NONE| 2
 AirLoopHVAC,SYS_3|MIXED|SHR>NONE|SC>DX|SH>C-E|SSF>CV|ZH>B-E|ZC>NONE|SRF>NONE| 3,1,1,1,0,Yes
   AirLoop Return Connections,1,SYS_3|MIXED|SHR>NONE|SC>DX|SH>C-E|SSF>CV|ZH>B-E|ZC>NONE|SRF>NONE| 3,78,SYS_3|MIXED|SHR>NONE|SC>DX|SH>C-E|SSF>CV|ZH>B-E|ZC>NONE|SRF>NONE| 3 DEMAND OUTLET NODE,37,SYS_3|MIXED|SHR>NONE|SC>DX|SH>C-E|SSF>CV|ZH>B-E|ZC>NONE|SRF>NONE| 3 SUPPLY INLET NODE
   AirLoop Supply Connections,1,SYS_3|MIXED|SHR>NONE|SC>DX|SH>C-E|SSF>CV|ZH>B-E|ZC>NONE|SRF>NONE| 3,19,SYS_3|MIXED|SHR>NONE|SC>DX|SH>C-E|SSF>CV|ZH>B-E|ZC>NONE|SRF>NONE| 3 DEMAND INLET NODE,18,SYS_3|MIXED|SHR>NONE|SC>DX|SH>C-E|SSF>CV|ZH>B-E|ZC>NONE|SRF>NONE| 3 SUPPLY OUTLET NODE
   Cooled Zone Info,1,ALL_ST=RETAIL - SALES_FL=BUILDING STORY 1_SCH=C 2,7,AIR TERMINAL SINGLE DUCT CONSTANT VOLUME NO REHEAT 5 OUTLET AIR NODE,SYS_3|MIXED|SHR>NONE|SC>DX|SH>C-E|SSF>CV|ZH>B-E|ZC>NONE|SRF>NONE| 3
   Outdoor Air Connections,38,SYS3 RETURN FAN 3 OUTLET AIR NODE,39,SYS_3|MIXED|SHR>NONE|SC>DX|SH>C-E|SSF>CV|ZH>B-E|ZC>NONE|SRF>NONE| 3 MIXED AIR NODE,SYS_3|MIXED|SHR>NONE|SC>DX|SH>C-E|SSF>CV|ZH>B-E|ZC>NONE|SRF>NONE| 3
 AirLoopHVAC,SYS_4|MIXED|SHR>NONE|SC>DX|SH>C-E|SSF>CV|ZH>B-E|ZC>NONE|SRF>NONE|,1,1,1,0,Yes
   AirLoop Return Connections,1,SYS_4|MIXED|SHR>NONE|SC>DX|SH>C-E|SSF>CV|ZH>B-E|ZC>NONE|SRF>NONE|,79,SYS_4|MIXED|SHR>NONE|SC>DX|SH>C-E|SSF>CV|ZH>B-E|ZC>NONE|SRF>NONE| DEMAND OUTLET NODE,42,SYS_4|MIXED|SHR>NONE|SC>DX|SH>C-E|SSF>CV|ZH>B-E|ZC>NONE|SRF>NONE| SUPPLY INLET NODE
   AirLoop Supply Connections,1,SYS_4|MIXED|SHR>NONE|SC>DX|SH>C-E|SSF>CV|ZH>B-E|ZC>NONE|SRF>NONE|,21,SYS_4|MIXED|SHR>NONE|SC>DX|SH>C-E|SSF>CV|ZH>B-E|ZC>NONE|SRF>NONE| DEMAND INLET NODE,20,SYS_4|MIXED|SHR>NONE|SC>DX|SH>C-E|SSF>CV|ZH>B-E|ZC>NONE|SRF>NONE| SUPPLY OUTLET NODE
   Cooled Zone Info,1,ALL_ST=STORAGE AREA_FL=BUILDING STORY 1_SCH=E,9,AIR TERMINAL SINGLE DUCT CONSTANT VOLUME NO REHEAT 1 OUTLET AIR NODE,SYS_4|MIXED|SHR>NONE|SC>DX|SH>C-E|SSF>CV|ZH>B-E|ZC>NONE|SRF>NONE|
   Outdoor Air Connections,42,SYS_4|MIXED|SHR>NONE|SC>DX|SH>C-E|SSF>CV|ZH>B-E|ZC>NONE|SRF>NONE| SUPPLY INLET NODE,43,SYS_4|MIXED|SHR>NONE|SC>DX|SH>C-E|SSF>CV|ZH>B-E|ZC>NONE|SRF>NONE| MIXED AIR NODE,SYS_4|MIXED|SHR>NONE|SC>DX|SH>C-E|SSF>CV|ZH>B-E|ZC>NONE|SRF>NONE|
! ===============================================================
! <#Parent Node Connections>,<Number of Parent Node Connections>
 #Parent Node Connections,108
! <Parent Node Connection>,<Node Name>,<Node ObjectType>,<Node ObjectName>,<Node ConnectionType>,<Node FluidStream>
 Parent Node Connection,SYS_3|MIXED|SHR>NONE|SC>DX|SH>C-E|SSF>CV|ZH>B-E|ZC>NONE|SRF>NONE| SUPPLY INLET NODE,BRANCH,SYS_3|MIXED|SHR>NONE|SC>DX|SH>C-E|SSF>CV|ZH>B-E|ZC>NONE|SRF>NONE| MAIN BRANCH,Inlet,1
 Parent Node Connection,SYS3 RETURN FAN OUTLET AIR NODE,BRANCH,SYS_3|MIXED|SHR>NONE|SC>DX|SH>C-E|SSF>CV|ZH>B-E|ZC>NONE|SRF>NONE| MAIN BRANCH,Internal,1
 Parent Node Connection,SYS_3|MIXED|SHR>NONE|SC>DX|SH>C-E|SSF>CV|ZH>B-E|ZC>NONE|SRF>NONE| MIXED AIR NODE,BRANCH,SYS_3|MIXED|SHR>NONE|SC>DX|SH>C-E|SSF>CV|ZH>B-E|ZC>NONE|SRF>NONE| MAIN BRANCH,Internal,1
 Parent Node Connection,COILCOOLINGDXSINGLESPEED_DX 1 58KBTU/HR 7.7726EER OUTLET AIR NODE,BRANCH,SYS_3|MIXED|SHR>NONE|SC>DX|SH>C-E|SSF>CV|ZH>B-E|ZC>NONE|SRF>NONE| MAIN BRANCH,Internal,1
 Parent Node Connection,COIL HEATING ELECTRIC 2 OUTLET AIR NODE,BRANCH,SYS_3|MIXED|SHR>NONE|SC>DX|SH>C-E|SSF>CV|ZH>B-E|ZC>NONE|SRF>NONE| MAIN BRANCH,Internal,1
 Parent Node Connection,SYS_3|MIXED|SHR>NONE|SC>DX|SH>C-E|SSF>CV|ZH>B-E|ZC>NONE|SRF>NONE| SUPPLY OUTLET NODE,BRANCH,SYS_3|MIXED|SHR>NONE|SC>DX|SH>C-E|SSF>CV|ZH>B-E|ZC>NONE|SRF>NONE| MAIN BRANCH,Outlet,1
 Parent Node Connection,SYS_3|MIXED|SHR>NONE|SC>DX|SH>C-E|SSF>CV|ZH>B-E|ZC>NONE|SRF>NONE| 1 SUPPLY INLET NODE,BRANCH,SYS_3|MIXED|SHR>NONE|SC>DX|SH>C-E|SSF>CV|ZH>B-E|ZC>NONE|SRF>NONE| 1 MAIN BRANCH,Inlet,1
 Parent Node Connection,SYS3 RETURN FAN 1 OUTLET AIR NODE,BRANCH,SYS_3|MIXED|SHR>NONE|SC>DX|SH>C-E|SSF>CV|ZH>B-E|ZC>NONE|SRF>NONE| 1 MAIN BRANCH,Internal,1
 Parent Node Connection,SYS_3|MIXED|SHR>NONE|SC>DX|SH>C-E|SSF>CV|ZH>B-E|ZC>NONE|SRF>NONE| 1 MIXED AIR NODE,BRANCH,SYS_3|MIXED|SHR>NONE|SC>DX|SH>C-E|SSF>CV|ZH>B-E|ZC>NONE|SRF>NONE| 1 MAIN BRANCH,Internal,1
 Parent Node Connection,COILCOOLINGDXSINGLESPEED_DX 2 58KBTU/HR 7.7726EER OUTLET AIR NODE,BRANCH,SYS_3|MIXED|SHR>NONE|SC>DX|SH>C-E|SSF>CV|ZH>B-E|ZC>NONE|SRF>NONE| 1 MAIN BRANCH,Internal,1
 Parent Node Connection,COIL HEATING ELECTRIC 3 OUTLET AIR NODE,BRANCH,SYS_3|MIXED|SHR>NONE|SC>DX|SH>C-E|SSF>CV|ZH>B-E|ZC>NONE|SRF>NONE| 1 MAIN BRANCH,Internal,1
 Parent Node Connection,SYS_3|MIXED|SHR>NONE|SC>DX|SH>C-E|SSF>CV|ZH>B-E|ZC>NONE|SRF>NONE| 1 SUPPLY OUTLET NODE,BRANCH,SYS_3|MIXED|SHR>NONE|SC>DX|SH>C-E|SSF>CV|ZH>B-E|ZC>NONE|SRF>NONE| 1 MAIN BRANCH,Outlet,1
 Parent Node Connection,SYS_3|MIXED|SHR>NONE|SC>DX|SH>C-E|SSF>CV|ZH>B-E|ZC>NONE|SRF>NONE| 2 SUPPLY INLET NODE,BRANCH,SYS_3|MIXED|SHR>NONE|SC>DX|SH>C-E|SSF>CV|ZH>B-E|ZC>NONE|SRF>NONE| 2 MAIN BRANCH,Inlet,1
 Parent Node Connection,SYS3 RETURN FAN 2 OUTLET AIR NODE,BRANCH,SYS_3|MIXED|SHR>NONE|SC>DX|SH>C-E|SSF>CV|ZH>B-E|ZC>NONE|SRF>NONE| 2 MAIN BRANCH,Internal,1
 Parent Node Connection,SYS_3|MIXED|SHR>NONE|SC>DX|SH>C-E|SSF>CV|ZH>B-E|ZC>NONE|SRF>NONE| 2 MIXED AIR NODE,BRANCH,SYS_3|MIXED|SHR>NONE|SC>DX|SH>C-E|SSF>CV|ZH>B-E|ZC>NONE|SRF>NONE| 2 MAIN BRANCH,Internal,1
 Parent Node Connection,COILCOOLINGDXSINGLESPEED_DX 3 10KBTU/HR 7.7726EER OUTLET AIR NODE,BRANCH,SYS_3|MIXED|SHR>NONE|SC>DX|SH>C-E|SSF>CV|ZH>B-E|ZC>NONE|SRF>NONE| 2 MAIN BRANCH,Internal,1
 Parent Node Connection,COIL HEATING ELECTRIC 4 OUTLET AIR NODE,BRANCH,SYS_3|MIXED|SHR>NONE|SC>DX|SH>C-E|SSF>CV|ZH>B-E|ZC>NONE|SRF>NONE| 2 MAIN BRANCH,Internal,1
 Parent Node Connection,SYS_3|MIXED|SHR>NONE|SC>DX|SH>C-E|SSF>CV|ZH>B-E|ZC>NONE|SRF>NONE| 2 SUPPLY OUTLET NODE,BRANCH,SYS_3|MIXED|SHR>NONE|SC>DX|SH>C-E|SSF>CV|ZH>B-E|ZC>NONE|SRF>NONE| 2 MAIN BRANCH,Outlet,1
 Parent Node Connection,SYS_3|MIXED|SHR>NONE|SC>DX|SH>C-E|SSF>CV|ZH>B-E|ZC>NONE|SRF>NONE| 3 SUPPLY INLET NODE,BRANCH,SYS_3|MIXED|SHR>NONE|SC>DX|SH>C-E|SSF>CV|ZH>B-E|ZC>NONE|SRF>NONE| 3 MAIN BRANCH,Inlet,1
 Parent Node Connection,SYS3 RETURN FAN 3 OUTLET AIR NODE,BRANCH,SYS_3|MIXED|SHR>NONE|SC>DX|SH>C-E|SSF>CV|ZH>B-E|ZC>NONE|SRF>NONE| 3 MAIN BRANCH,Internal,1
 Parent Node Connection,SYS_3|MIXED|SHR>NONE|SC>DX|SH>C-E|SSF>CV|ZH>B-E|ZC>NONE|SRF>NONE| 3 MIXED AIR NODE,BRANCH,SYS_3|MIXED|SHR>NONE|SC>DX|SH>C-E|SSF>CV|ZH>B-E|ZC>NONE|SRF>NONE| 3 MAIN BRANCH,Internal,1
 Parent Node Connection,COILCOOLINGDXSINGLESPEED_DX 4 235KBTU/HR 7.7726EER OUTLET AIR NODE,BRANCH,SYS_3|MIXED|SHR>NONE|SC>DX|SH>C-E|SSF>CV|ZH>B-E|ZC>NONE|SRF>NONE| 3 MAIN BRANCH,Internal,1
 Parent Node Connection,COIL HEATING ELECTRIC 5 OUTLET AIR NODE,BRANCH,SYS_3|MIXED|SHR>NONE|SC>DX|SH>C-E|SSF>CV|ZH>B-E|ZC>NONE|SRF>NONE| 3 MAIN BRANCH,Internal,1
 Parent Node Connection,SYS_3|MIXED|SHR>NONE|SC>DX|SH>C-E|SSF>CV|ZH>B-E|ZC>NONE|SRF>NONE| 3 SUPPLY OUTLET NODE,BRANCH,SYS_3|MIXED|SHR>NONE|SC>DX|SH>C-E|SSF>CV|ZH>B-E|ZC>NONE|SRF>NONE| 3 MAIN BRANCH,Outlet,1
 Parent Node Connection,SYS_4|MIXED|SHR>NONE|SC>DX|SH>C-E|SSF>CV|ZH>B-E|ZC>NONE|SRF>NONE| SUPPLY INLET NODE,BRANCH,SYS_4|MIXED|SHR>NONE|SC>DX|SH>C-E|SSF>CV|ZH>B-E|ZC>NONE|SRF>NONE| MAIN BRANCH,Inlet,1
 Parent Node Connection,SYS_4|MIXED|SHR>NONE|SC>DX|SH>C-E|SSF>CV|ZH>B-E|ZC>NONE|SRF>NONE| MIXED AIR NODE,BRANCH,SYS_4|MIXED|SHR>NONE|SC>DX|SH>C-E|SSF>CV|ZH>B-E|ZC>NONE|SRF>NONE| MAIN BRANCH,Internal,1
 Parent Node Connection,COILCOOLINGDXSINGLESPEED_DX 18KBTU/HR 7.7726EER OUTLET AIR NODE,BRANCH,SYS_4|MIXED|SHR>NONE|SC>DX|SH>C-E|SSF>CV|ZH>B-E|ZC>NONE|SRF>NONE| MAIN BRANCH,Internal,1
 Parent Node Connection,COIL HEATING ELECTRIC 1 OUTLET AIR NODE,BRANCH,SYS_4|MIXED|SHR>NONE|SC>DX|SH>C-E|SSF>CV|ZH>B-E|ZC>NONE|SRF>NONE| MAIN BRANCH,Internal,1
 Parent Node Connection,SYS_4|MIXED|SHR>NONE|SC>DX|SH>C-E|SSF>CV|ZH>B-E|ZC>NONE|SRF>NONE| SUPPLY OUTLET NODE,BRANCH,SYS_4|MIXED|SHR>NONE|SC>DX|SH>C-E|SSF>CV|ZH>B-E|ZC>NONE|SRF>NONE| MAIN BRANCH,Outlet,1
 Parent Node Connection,MAIN SERVICE WATER LOOP SUPPLY INLET NODE,BRANCH,MAIN SERVICE WATER LOOP SUPPLY INLET BRANCH,Inlet,1
 Parent Node Connection,MAIN SERVICE WATER LOOP CIRCULATOR PUMP OUTLET WATER NODE,BRANCH,MAIN SERVICE WATER LOOP SUPPLY INLET BRANCH,Outlet,1
 Parent Node Connection,17GAL ELECTRICITY WATER HEATER - 11KBTU/HR 1 THERM EFF SUPPLY INLET WATER NODE,BRANCH,MAIN SERVICE WATER LOOP SUPPLY BRANCH 1,Inlet,1
 Parent Node Connection,17GAL ELECTRICITY WATER HEATER - 11KBTU/HR 1 THERM EFF SUPPLY OUTLET WATER NODE,BRANCH,MAIN SERVICE WATER LOOP SUPPLY BRANCH 1,Outlet,1
 Parent Node Connection,PIPE ADIABATIC 1 INLET WATER NODE,BRANCH,MAIN SERVICE WATER LOOP SUPPLY BRANCH 2,Inlet,1
 Parent Node Connection,PIPE ADIABATIC 1 OUTLET WATER NODE,BRANCH,MAIN SERVICE WATER LOOP SUPPLY BRANCH 2,Outlet,1
 Parent Node Connection,PIPE ADIABATIC 3 INLET WATER NODE,BRANCH,MAIN SERVICE WATER LOOP SUPPLY OUTLET BRANCH,Inlet,1
 Parent Node Connection,MAIN SERVICE WATER LOOP SUPPLY OUTLET NODE,BRANCH,MAIN SERVICE WATER LOOP SUPPLY OUTLET BRANCH,Outlet,1
 Parent Node Connection,MAIN SERVICE WATER LOOP DEMAND INLET NODE,BRANCH,MAIN SERVICE WATER LOOP DEMAND INLET BRANCH,Inlet,1
 Parent Node Connection,MAIN SERVICE WATER LOOP DEMAND INLET PIPE NODE,BRANCH,MAIN SERVICE WATER LOOP DEMAND INLET BRANCH,Outlet,1
 Parent Node Connection,PIPE ADIABATIC 2 INLET WATER NODE,BRANCH,MAIN SERVICE WATER LOOP DEMAND BRANCH 1,Inlet,1
 Parent Node Connection,PIPE ADIABATIC 2 OUTLET WATER NODE,BRANCH,MAIN SERVICE WATER LOOP DEMAND BRANCH 1,Outlet,1
 Parent Node Connection,BACK_SPACE WUC 0.1GPM 140F INLET WATER NODE,BRANCH,MAIN SERVICE WATER LOOP DEMAND BRANCH 2,Inlet,1
 Parent Node Connection,BACK_SPACE WUC 0.1GPM 140F OUTLET WATER NODE,BRANCH,MAIN SERVICE WATER LOOP DEMAND BRANCH 2,Outlet,1
 Parent Node Connection,CORE_RETAIL WUC 0.18GPM 140F INLET WATER NODE,BRANCH,MAIN SERVICE WATER LOOP DEMAND BRANCH 3,Inlet,1
 Parent Node Connection,CORE_RETAIL WUC 0.18GPM 140F OUTLET WATER NODE,BRANCH,MAIN SERVICE WATER LOOP DEMAND BRANCH 3,Outlet,1
 Parent Node Connection,FRONT_RETAIL WUC 0.02GPM 140F INLET WATER NODE,BRANCH,MAIN SERVICE WATER LOOP DEMAND BRANCH 4,Inlet,1
 Parent Node Connection,FRONT_RETAIL WUC 0.02GPM 140F OUTLET WATER NODE,BRANCH,MAIN SERVICE WATER LOOP DEMAND BRANCH 4,Outlet,1
 Parent Node Connection,POINT_OF_SALE WUC 0.02GPM 140F INLET WATER NODE,BRANCH,MAIN SERVICE WATER LOOP DEMAND BRANCH 5,Inlet,1
 Parent Node Connection,POINT_OF_SALE WUC 0.02GPM 140F OUTLET WATER NODE,BRANCH,MAIN SERVICE WATER LOOP DEMAND BRANCH 5,Outlet,1
 Parent Node Connection,MAIN SERVICE WATER LOOP DEMAND BYPASS PIPE INLET NODE,BRANCH,MAIN SERVICE WATER LOOP DEMAND BYPASS BRANCH,Inlet,1
 Parent Node Connection,MAIN SERVICE WATER LOOP DEMAND BYPASS PIPE OUTLET NODE,BRANCH,MAIN SERVICE WATER LOOP DEMAND BYPASS BRANCH,Outlet,1
 Parent Node Connection,PIPE ADIABATIC 4 INLET WATER NODE,BRANCH,MAIN SERVICE WATER LOOP DEMAND OUTLET BRANCH,Inlet,1
 Parent Node Connection,MAIN SERVICE WATER LOOP DEMAND OUTLET NODE,BRANCH,MAIN SERVICE WATER LOOP DEMAND OUTLET BRANCH,Outlet,1
 Parent Node Connection,SYS_3|MIXED|SHR>NONE|SC>DX|SH>C-E|SSF>CV|ZH>B-E|ZC>NONE|SRF>NONE| DEMAND INLET NODE,AIRLOOPHVAC:SUPPLYPATH,SYS_3|MIXED|SHR>NONE|SC>DX|SH>C-E|SSF>CV|ZH>B-E|ZC>NONE|SRF>NONE| SYS_3|MIXED|SHR>NONE|SC>DX|SH>C-E|SSF>CV|ZH>B-E|ZC>NONE|SRF>NONE| DEMAND INLET NODE SUPPLY PATH,Inlet,1
 Parent Node Connection,SYS_3|MIXED|SHR>NONE|SC>DX|SH>C-E|SSF>CV|ZH>B-E|ZC>NONE|SRF>NONE| 1 DEMAND INLET NODE,AIRLOOPHVAC:SUPPLYPATH,SYS_3|MIXED|SHR>NONE|SC>DX|SH>C-E|SSF>CV|ZH>B-E|ZC>NONE|SRF>NONE| 1 SYS_3|MIXED|SHR>NONE|SC>DX|SH>C-E|SSF>CV|ZH>B-E|ZC>NONE|SRF>NONE| 1 DEMAND INLET NODE SUPPLY PATH,Inlet,1
 Parent Node Connection,SYS_3|MIXED|SHR>NONE|SC>DX|SH>C-E|SSF>CV|ZH>B-E|ZC>NONE|SRF>NONE| 2 DEMAND INLET NODE,AIRLOOPHVAC:SUPPLYPATH,SYS_3|MIXED|SHR>NONE|SC>DX|SH>C-E|SSF>CV|ZH>B-E|ZC>NONE|SRF>NONE| 2 SYS_3|MIXED|SHR>NONE|SC>DX|SH>C-E|SSF>CV|ZH>B-E|ZC>NONE|SRF>NONE| 2 DEMAND INLET NODE SUPPLY PATH,Inlet,1
 Parent Node Connection,SYS_3|MIXED|SHR>NONE|SC>DX|SH>C-E|SSF>CV|ZH>B-E|ZC>NONE|SRF>NONE| 3 DEMAND INLET NODE,AIRLOOPHVAC:SUPPLYPATH,SYS_3|MIXED|SHR>NONE|SC>DX|SH>C-E|SSF>CV|ZH>B-E|ZC>NONE|SRF>NONE| 3 SYS_3|MIXED|SHR>NONE|SC>DX|SH>C-E|SSF>CV|ZH>B-E|ZC>NONE|SRF>NONE| 3 DEMAND INLET NODE SUPPLY PATH,Inlet,1
 Parent Node Connection,SYS_4|MIXED|SHR>NONE|SC>DX|SH>C-E|SSF>CV|ZH>B-E|ZC>NONE|SRF>NONE| DEMAND INLET NODE,AIRLOOPHVAC:SUPPLYPATH,SYS_4|MIXED|SHR>NONE|SC>DX|SH>C-E|SSF>CV|ZH>B-E|ZC>NONE|SRF>NONE| SYS_4|MIXED|SHR>NONE|SC>DX|SH>C-E|SSF>CV|ZH>B-E|ZC>NONE|SRF>NONE| DEMAND INLET NODE SUPPLY PATH,Inlet,1
 Parent Node Connection,SYS_3|MIXED|SHR>NONE|SC>DX|SH>C-E|SSF>CV|ZH>B-E|ZC>NONE|SRF>NONE| DEMAND OUTLET NODE,AIRLOOPHVAC:RETURNPATH,SYS_3|MIXED|SHR>NONE|SC>DX|SH>C-E|SSF>CV|ZH>B-E|ZC>NONE|SRF>NONE| RETURN PATH,Outlet,1
 Parent Node Connection,SYS_3|MIXED|SHR>NONE|SC>DX|SH>C-E|SSF>CV|ZH>B-E|ZC>NONE|SRF>NONE| 1 DEMAND OUTLET NODE,AIRLOOPHVAC:RETURNPATH,SYS_3|MIXED|SHR>NONE|SC>DX|SH>C-E|SSF>CV|ZH>B-E|ZC>NONE|SRF>NONE| 1 RETURN PATH,Outlet,1
 Parent Node Connection,SYS_3|MIXED|SHR>NONE|SC>DX|SH>C-E|SSF>CV|ZH>B-E|ZC>NONE|SRF>NONE| 2 DEMAND OUTLET NODE,AIRLOOPHVAC:RETURNPATH,SYS_3|MIXED|SHR>NONE|SC>DX|SH>C-E|SSF>CV|ZH>B-E|ZC>NONE|SRF>NONE| 2 RETURN PATH,Outlet,1
 Parent Node Connection,SYS_3|MIXED|SHR>NONE|SC>DX|SH>C-E|SSF>CV|ZH>B-E|ZC>NONE|SRF>NONE| 3 DEMAND OUTLET NODE,AIRLOOPHVAC:RETURNPATH,SYS_3|MIXED|SHR>NONE|SC>DX|SH>C-E|SSF>CV|ZH>B-E|ZC>NONE|SRF>NONE| 3 RETURN PATH,Outlet,1
 Parent Node Connection,SYS_4|MIXED|SHR>NONE|SC>DX|SH>C-E|SSF>CV|ZH>B-E|ZC>NONE|SRF>NONE| DEMAND OUTLET NODE,AIRLOOPHVAC:RETURNPATH,SYS_4|MIXED|SHR>NONE|SC>DX|SH>C-E|SSF>CV|ZH>B-E|ZC>NONE|SRF>NONE| RETURN PATH,Outlet,1
 Parent Node Connection,MAIN SERVICE WATER LOOP SUPPLY INLET NODE,PLANTLOOP,MAIN SERVICE WATER LOOP,Inlet,1
 Parent Node Connection,MAIN SERVICE WATER LOOP SUPPLY OUTLET NODE,PLANTLOOP,MAIN SERVICE WATER LOOP,Outlet,1
 Parent Node Connection,MAIN SERVICE WATER LOOP DEMAND INLET NODE,PLANTLOOP,MAIN SERVICE WATER LOOP,Inlet,1
 Parent Node Connection,MAIN SERVICE WATER LOOP DEMAND OUTLET NODE,PLANTLOOP,MAIN SERVICE WATER LOOP,Outlet,1
 Parent Node Connection,MAIN SERVICE WATER LOOP SUPPLY OUTLET NODE,PLANTLOOP,MAIN SERVICE WATER LOOP,Sensor,1
 Parent Node Connection,AIR TERMINAL SINGLE DUCT CONSTANT VOLUME NO REHEAT 4 OUTLET AIR NODE,ZONEHVAC:AIRDISTRIBUTIONUNIT,ADU AIR TERMINAL SINGLE DUCT CONSTANT VOLUME NO REHEAT 4,Outlet,1
 Parent Node Connection,AIR TERMINAL SINGLE DUCT CONSTANT VOLUME NO REHEAT 2 OUTLET AIR NODE,ZONEHVAC:AIRDISTRIBUTIONUNIT,ADU AIR TERMINAL SINGLE DUCT CONSTANT VOLUME NO REHEAT 2,Outlet,1
 Parent Node Connection,AIR TERMINAL SINGLE DUCT CONSTANT VOLUME NO REHEAT 3 OUTLET AIR NODE,ZONEHVAC:AIRDISTRIBUTIONUNIT,ADU AIR TERMINAL SINGLE DUCT CONSTANT VOLUME NO REHEAT 3,Outlet,1
 Parent Node Connection,AIR TERMINAL SINGLE DUCT CONSTANT VOLUME NO REHEAT 5 OUTLET AIR NODE,ZONEHVAC:AIRDISTRIBUTIONUNIT,ADU AIR TERMINAL SINGLE DUCT CONSTANT VOLUME NO REHEAT 5,Outlet,1
 Parent Node Connection,AIR TERMINAL SINGLE DUCT CONSTANT VOLUME NO REHEAT 1 OUTLET AIR NODE,ZONEHVAC:AIRDISTRIBUTIONUNIT,ADU AIR TERMINAL SINGLE DUCT CONSTANT VOLUME NO REHEAT 1,Outlet,1
 Parent Node Connection,SYS_3|MIXED|SHR>NONE|SC>DX|SH>C-E|SSF>CV|ZH>B-E|ZC>NONE|SRF>NONE| SUPPLY INLET NODE,AIRLOOPHVAC,SYS_3|MIXED|SHR>NONE|SC>DX|SH>C-E|SSF>CV|ZH>B-E|ZC>NONE|SRF>NONE|,Inlet,1
 Parent Node Connection,SYS_3|MIXED|SHR>NONE|SC>DX|SH>C-E|SSF>CV|ZH>B-E|ZC>NONE|SRF>NONE| DEMAND OUTLET NODE,AIRLOOPHVAC,SYS_3|MIXED|SHR>NONE|SC>DX|SH>C-E|SSF>CV|ZH>B-E|ZC>NONE|SRF>NONE|,Outlet,1
 Parent Node Connection,SYS_3|MIXED|SHR>NONE|SC>DX|SH>C-E|SSF>CV|ZH>B-E|ZC>NONE|SRF>NONE| DEMAND INLET NODE,AIRLOOPHVAC,SYS_3|MIXED|SHR>NONE|SC>DX|SH>C-E|SSF>CV|ZH>B-E|ZC>NONE|SRF>NONE|,Inlet,1
 Parent Node Connection,SYS_3|MIXED|SHR>NONE|SC>DX|SH>C-E|SSF>CV|ZH>B-E|ZC>NONE|SRF>NONE| SUPPLY OUTLET NODE,AIRLOOPHVAC,SYS_3|MIXED|SHR>NONE|SC>DX|SH>C-E|SSF>CV|ZH>B-E|ZC>NONE|SRF>NONE|,Outlet,1
[...]
 Non-Parent Node Connection,MAIN SERVICE WATER LOOP DEMAND BYPASS PIPE OUTLET NODE,CONNECTOR:MIXER,MAIN SERVICE WATER LOOP DEMAND MIXER,Inlet,1
 Non-Parent Node Connection,MAIN SERVICE WATER LOOP CIRCULATOR PUMP OUTLET WATER NODE,CONNECTOR:SPLITTER,MAIN SERVICE WATER LOOP SUPPLY SPLITTER,Inlet,1
 Non-Parent Node Connection,17GAL ELECTRICITY WATER HEATER - 11KBTU/HR 1 THERM EFF SUPPLY INLET WATER NODE,CONNECTOR:SPLITTER,MAIN SERVICE WATER LOOP SUPPLY SPLITTER,Outlet,1
 Non-Parent Node Connection,PIPE ADIABATIC 1 INLET WATER NODE,CONNECTOR:SPLITTER,MAIN SERVICE WATER LOOP SUPPLY SPLITTER,Outlet,1
 Non-Parent Node Connection,PIPE ADIABATIC 3 INLET WATER NODE,CONNECTOR:MIXER,MAIN SERVICE WATER LOOP SUPPLY MIXER,Outlet,1
 Non-Parent Node Connection,17GAL ELECTRICITY WATER HEATER - 11KBTU/HR 1 THERM EFF SUPPLY OUTLET WATER NODE,CONNECTOR:MIXER,MAIN SERVICE WATER LOOP SUPPLY MIXER,Inlet,1
 Non-Parent Node Connection,PIPE ADIABATIC 1 OUTLET WATER NODE,CONNECTOR:MIXER,MAIN SERVICE WATER LOOP SUPPLY MIXER,Inlet,1
 Non-Parent Node Connection,SYS_3|MIXED|SHR>NONE|SC>DX|SH>C-E|SSF>CV|ZH>B-E|ZC>NONE|SRF>NONE| DEMAND INLET NODE,AIRLOOPHVAC:ZONESPLITTER,AIR LOOP HVAC ZONE SPLITTER 2,Inlet,1
 Non-Parent Node Connection,AIR TERMINAL SINGLE DUCT CONSTANT VOLUME NO REHEAT 2 INLET AIR NODE,AIRLOOPHVAC:ZONESPLITTER,AIR LOOP HVAC ZONE SPLITTER 2,Outlet,1
 Non-Parent Node Connection,SYS_3|MIXED|SHR>NONE|SC>DX|SH>C-E|SSF>CV|ZH>B-E|ZC>NONE|SRF>NONE| 1 DEMAND INLET NODE,AIRLOOPHVAC:ZONESPLITTER,AIR LOOP HVAC ZONE SPLITTER 3,Inlet,1
 Non-Parent Node Connection,AIR TERMINAL SINGLE DUCT CONSTANT VOLUME NO REHEAT 3 INLET AIR NODE,AIRLOOPHVAC:ZONESPLITTER,AIR LOOP HVAC ZONE SPLITTER 3,Outlet,1
 Non-Parent Node Connection,SYS_3|MIXED|SHR>NONE|SC>DX|SH>C-E|SSF>CV|ZH>B-E|ZC>NONE|SRF>NONE| 2 DEMAND INLET NODE,AIRLOOPHVAC:ZONESPLITTER,AIR LOOP HVAC ZONE SPLITTER 4,Inlet,1
 Non-Parent Node Connection,AIR TERMINAL SINGLE DUCT CONSTANT VOLUME NO REHEAT 4 INLET AIR NODE,AIRLOOPHVAC:ZONESPLITTER,AIR LOOP HVAC ZONE SPLITTER 4,Outlet,1
 Non-Parent Node Connection,SYS_3|MIXED|SHR>NONE|SC>DX|SH>C-E|SSF>CV|ZH>B-E|ZC>NONE|SRF>NONE| 3 DEMAND INLET NODE,AIRLOOPHVAC:ZONESPLITTER,AIR LOOP HVAC ZONE SPLITTER 5,Inlet,1
 Non-Parent Node Connection,AIR TERMINAL SINGLE DUCT CONSTANT VOLUME NO REHEAT 5 INLET AIR NODE,AIRLOOPHVAC:ZONESPLITTER,AIR LOOP HVAC ZONE SPLITTER 5,Outlet,1
 Non-Parent Node Connection,SYS_4|MIXED|SHR>NONE|SC>DX|SH>C-E|SSF>CV|ZH>B-E|ZC>NONE|SRF>NONE| DEMAND INLET NODE,AIRLOOPHVAC:ZONESPLITTER,AIR LOOP HVAC ZONE SPLITTER 1,Inlet,1
 Non-Parent Node Connection,AIR TERMINAL SINGLE DUCT CONSTANT VOLUME NO REHEAT 1 INLET AIR NODE,AIRLOOPHVAC:ZONESPLITTER,AIR LOOP HVAC ZONE SPLITTER 1,Outlet,1
 Non-Parent Node Connection,AIR TERMINAL SINGLE DUCT CONSTANT VOLUME NO REHEAT 4 INLET AIR NODE,AIRTERMINAL:SINGLEDUCT:CONSTANTVOLUME:NOREHEAT,AIR TERMINAL SINGLE DUCT CONSTANT VOLUME NO REHEAT 4,Inlet,1
 Non-Parent Node Connection,AIR TERMINAL SINGLE DUCT CONSTANT VOLUME NO REHEAT 4 OUTLET AIR NODE,AIRTERMINAL:SINGLEDUCT:CONSTANTVOLUME:NOREHEAT,AIR TERMINAL SINGLE DUCT CONSTANT VOLUME NO REHEAT 4,Outlet,1
 Non-Parent Node Connection,AIR TERMINAL SINGLE DUCT CONSTANT VOLUME NO REHEAT 2 INLET AIR NODE,AIRTERMINAL:SINGLEDUCT:CONSTANTVOLUME:NOREHEAT,AIR TERMINAL SINGLE DUCT CONSTANT VOLUME NO REHEAT 2,Inlet,1
 Non-Parent Node Connection,AIR TERMINAL SINGLE DUCT CONSTANT VOLUME NO REHEAT 2 OUTLET AIR NODE,AIRTERMINAL:SINGLEDUCT:CONSTANTVOLUME:NOREHEAT,AIR TERMINAL SINGLE DUCT CONSTANT VOLUME NO REHEAT 2,Outlet,1
 Non-Parent Node Connection,AIR TERMINAL SINGLE DUCT CONSTANT VOLUME NO REHEAT 3 INLET AIR NODE,AIRTERMINAL:SINGLEDUCT:CONSTANTVOLUME:NOREHEAT,AIR TERMINAL SINGLE DUCT CONSTANT VOLUME NO REHEAT 3,Inlet,1
 Non-Parent Node Connection,AIR TERMINAL SINGLE DUCT CONSTANT VOLUME NO REHEAT 3 OUTLET AIR NODE,AIRTERMINAL:SINGLEDUCT:CONSTANTVOLUME:NOREHEAT,AIR TERMINAL SINGLE DUCT CONSTANT VOLUME NO REHEAT 3,Outlet,1
 Non-Parent Node Connection,AIR TERMINAL SINGLE DUCT CONSTANT VOLUME NO REHEAT 5 INLET AIR NODE,AIRTERMINAL:SINGLEDUCT:CONSTANTVOLUME:NOREHEAT,AIR TERMINAL SINGLE DUCT CONSTANT VOLUME NO REHEAT 5,Inlet,1
 Non-Parent Node Connection,AIR TERMINAL SINGLE DUCT CONSTANT VOLUME NO REHEAT 5 OUTLET AIR NODE,AIRTERMINAL:SINGLEDUCT:CONSTANTVOLUME:NOREHEAT,AIR TERMINAL SINGLE DUCT CONSTANT VOLUME NO REHEAT 5,Outlet,1
 Non-Parent Node Connection,AIR TERMINAL SINGLE DUCT CONSTANT VOLUME NO REHEAT 1 INLET AIR NODE,AIRTERMINAL:SINGLEDUCT:CONSTANTVOLUME:NOREHEAT,AIR TERMINAL SINGLE DUCT CONSTANT VOLUME NO REHEAT 1,Inlet,1
 Non-Parent Node Connection,AIR TERMINAL SINGLE DUCT CONSTANT VOLUME NO REHEAT 1 OUTLET AIR NODE,AIRTERMINAL:SINGLEDUCT:CONSTANTVOLUME:NOREHEAT,AIR TERMINAL SINGLE DUCT CONSTANT VOLUME NO REHEAT 1,Outlet,1
 Non-Parent Node Connection,SYS_3|MIXED|SHR>NONE|SC>DX|SH>C-E|SSF>CV|ZH>B-E|ZC>NONE|SRF>NONE| SUPPLY INLET NODE,FAN:CONSTANTVOLUME,SYS3 RETURN FAN,Inlet,1
 Non-Parent Node Connection,SYS3 RETURN FAN OUTLET AIR NODE,FAN:CONSTANTVOLUME,SYS3 RETURN FAN,Outlet,1
 Non-Parent Node Connection,COIL HEATING ELECTRIC 2 OUTLET AIR NODE,FAN:CONSTANTVOLUME,FAN CONSTANT VOLUME 2,Inlet,1
 Non-Parent Node Connection,SYS_3|MIXED|SHR>NONE|SC>DX|SH>C-E|SSF>CV|ZH>B-E|ZC>NONE|SRF>NONE| SUPPLY OUTLET NODE,FAN:CONSTANTVOLUME,FAN CONSTANT VOLUME 2,Outlet,1
 Non-Parent Node Connection,SYS_3|MIXED|SHR>NONE|SC>DX|SH>C-E|SSF>CV|ZH>B-E|ZC>NONE|SRF>NONE| 1 SUPPLY INLET NODE,FAN:CONSTANTVOLUME,SYS3 RETURN FAN 1,Inlet,1
 Non-Parent Node Connection,SYS3 RETURN FAN 1 OUTLET AIR NODE,FAN:CONSTANTVOLUME,SYS3 RETURN FAN 1,Outlet,1
 Non-Parent Node Connection,COIL HEATING ELECTRIC 3 OUTLET AIR NODE,FAN:CONSTANTVOLUME,FAN CONSTANT VOLUME 3,Inlet,1
 Non-Parent Node Connection,SYS_3|MIXED|SHR>NONE|SC>DX|SH>C-E|SSF>CV|ZH>B-E|ZC>NONE|SRF>NONE| 1 SUPPLY OUTLET NODE,FAN:CONSTANTVOLUME,FAN CONSTANT VOLUME 3,Outlet,1
 Non-Parent Node Connection,SYS_3|MIXED|SHR>NONE|SC>DX|SH>C-E|SSF>CV|ZH>B-E|ZC>NONE|SRF>NONE| 2 SUPPLY INLET NODE,FAN:CONSTANTVOLUME,SYS3 RETURN FAN 2,Inlet,1
 Non-Parent Node Connection,SYS3 RETURN FAN 2 OUTLET AIR NODE,FAN:CONSTANTVOLUME,SYS3 RETURN FAN 2,Outlet,1
 Non-Parent Node Connection,COIL HEATING ELECTRIC 4 OUTLET AIR NODE,FAN:CONSTANTVOLUME,FAN CONSTANT VOLUME 4,Inlet,1
 Non-Parent Node Connection,SYS_3|MIXED|SHR>NONE|SC>DX|SH>C-E|SSF>CV|ZH>B-E|ZC>NONE|SRF>NONE| 2 SUPPLY OUTLET NODE,FAN:CONSTANTVOLUME,FAN CONSTANT VOLUME 4,Outlet,1
 Non-Parent Node Connection,SYS_3|MIXED|SHR>NONE|SC>DX|SH>C-E|SSF>CV|ZH>B-E|ZC>NONE|SRF>NONE| 3 SUPPLY INLET NODE,FAN:CONSTANTVOLUME,SYS3 RETURN FAN 3,Inlet,1
 Non-Parent Node Connection,SYS3 RETURN FAN 3 OUTLET AIR NODE,FAN:CONSTANTVOLUME,SYS3 RETURN FAN 3,Outlet,1
 Non-Parent Node Connection,COIL HEATING ELECTRIC 5 OUTLET AIR NODE,FAN:CONSTANTVOLUME,FAN CONSTANT VOLUME 5,Inlet,1
 Non-Parent Node Connection,SYS_3|MIXED|SHR>NONE|SC>DX|SH>C-E|SSF>CV|ZH>B-E|ZC>NONE|SRF>NONE| 3 SUPPLY OUTLET NODE,FAN:CONSTANTVOLUME,FAN CONSTANT VOLUME 5,Outlet,1
 Non-Parent Node Connection,COIL HEATING ELECTRIC 1 OUTLET AIR NODE,FAN:CONSTANTVOLUME,FAN CONSTANT VOLUME 1,Inlet,1
 Non-Parent Node Connection,SYS_4|MIXED|SHR>NONE|SC>DX|SH>C-E|SSF>CV|ZH>B-E|ZC>NONE|SRF>NONE| SUPPLY OUTLET NODE,FAN:CONSTANTVOLUME,FAN CONSTANT VOLUME 1,Outlet,1
 Non-Parent Node Connection,SYS_4_ZONE_EXHAUST_FAN INLET AIR NODE,FAN:ZONEEXHAUST,SYS_4_ZONE_EXHAUST_FAN,Inlet,1
 Non-Parent Node Connection,SYS_4_ZONE_EXHAUST_FAN OUTLET AIR NODE,FAN:ZONEEXHAUST,SYS_4_ZONE_EXHAUST_FAN,Outlet,1
 Non-Parent Node Connection,SYS_3|MIXED|SHR>NONE|SC>DX|SH>C-E|SSF>CV|ZH>B-E|ZC>NONE|SRF>NONE| DEMAND OUTLET NODE,AIRLOOPHVAC:ZONEMIXER,AIR LOOP HVAC ZONE MIXER 2,Outlet,1
 Non-Parent Node Connection,ALL_ST=RETAIL - SALES_FL=BUILDING STORY 1_SCH=C RETURN AIR NODE,AIRLOOPHVAC:ZONEMIXER,AIR LOOP HVAC ZONE MIXER 2,Inlet,1
 Non-Parent Node Connection,SYS_3|MIXED|SHR>NONE|SC>DX|SH>C-E|SSF>CV|ZH>B-E|ZC>NONE|SRF>NONE| 1 DEMAND OUTLET NODE,AIRLOOPHVAC:ZONEMIXER,AIR LOOP HVAC ZONE MIXER 3,Outlet,1
 Non-Parent Node Connection,ALL_ST=RETAIL - SALES_FL=BUILDING STORY 1_SCH=C 1 RETURN AIR NODE,AIRLOOPHVAC:ZONEMIXER,AIR LOOP HVAC ZONE MIXER 3,Inlet,1
 Non-Parent Node Connection,SYS_3|MIXED|SHR>NONE|SC>DX|SH>C-E|SSF>CV|ZH>B-E|ZC>NONE|SRF>NONE| 2 DEMAND OUTLET NODE,AIRLOOPHVAC:ZONEMIXER,AIR LOOP HVAC ZONE MIXER 4,Outlet,1
 Non-Parent Node Connection,ALL_ST=LOBBY - ELEVATOR_FL=BUILDING STORY 1_SCH=C RETURN AIR NODE,AIRLOOPHVAC:ZONEMIXER,AIR LOOP HVAC ZONE MIXER 4,Inlet,1
 Non-Parent Node Connection,SYS_3|MIXED|SHR>NONE|SC>DX|SH>C-E|SSF>CV|ZH>B-E|ZC>NONE|SRF>NONE| 3 DEMAND OUTLET NODE,AIRLOOPHVAC:ZONEMIXER,AIR LOOP HVAC ZONE MIXER 5,Outlet,1
 Non-Parent Node Connection,ALL_ST=RETAIL - SALES_FL=BUILDING STORY 1_SCH=C 2 RETURN AIR NODE,AIRLOOPHVAC:ZONEMIXER,AIR LOOP HVAC ZONE MIXER 5,Inlet,1
 Non-Parent Node Connection,SYS_4|MIXED|SHR>NONE|SC>DX|SH>C-E|SSF>CV|ZH>B-E|ZC>NONE|SRF>NONE| DEMAND OUTLET NODE,AIRLOOPHVAC:ZONEMIXER,AIR LOOP HVAC ZONE MIXER 1,Outlet,1
 Non-Parent Node Connection,ALL_ST=STORAGE AREA_FL=BUILDING STORY 1_SCH=E RETURN AIR NODE,AIRLOOPHVAC:ZONEMIXER,AIR LOOP HVAC ZONE MIXER 1,Inlet,1
 Non-Parent Node Connection,SYS_3|MIXED|SHR>NONE|SC>DX|SH>C-E|SSF>CV|ZH>B-E|ZC>NONE|SRF>NONE| MIXED AIR NODE,OUTDOORAIR:MIXER,AIR LOOP HVAC OUTDOOR AIR SYSTEM 2 OUTDOOR AIR MIXER,Outlet,1
 Non-Parent Node Connection,SYS_3|MIXED|SHR>NONE|SC>DX|SH>C-E|SSF>CV|ZH>B-E|ZC>NONE|SRF>NONE| OUTDOOR AIR NODE,OUTDOORAIR:MIXER,AIR LOOP HVAC OUTDOOR AIR SYSTEM 2 OUTDOOR AIR MIXER,Inlet,1
 Non-Parent Node Connection,SYS_3|MIXED|SHR>NONE|SC>DX|SH>C-E|SSF>CV|ZH>B-E|ZC>NONE|SRF>NONE| RELIEF AIR NODE,OUTDOORAIR:MIXER,AIR LOOP HVAC OUTDOOR AIR SYSTEM 2 OUTDOOR AIR MIXER,ReliefAir,1
 Non-Parent Node Connection,SYS3 RETURN FAN OUTLET AIR NODE,OUTDOORAIR:MIXER,AIR LOOP HVAC OUTDOOR AIR SYSTEM 2 OUTDOOR AIR MIXER,Inlet,1
 Non-Parent Node Connection,SYS_3|MIXED|SHR>NONE|SC>DX|SH>C-E|SSF>CV|ZH>B-E|ZC>NONE|SRF>NONE| 1 MIXED AIR NODE,OUTDOORAIR:MIXER,AIR LOOP HVAC OUTDOOR AIR SYSTEM 3 OUTDOOR AIR MIXER,Outlet,1
 Non-Parent Node Connection,SYS_3|MIXED|SHR>NONE|SC>DX|SH>C-E|SSF>CV|ZH>B-E|ZC>NONE|SRF>NONE| 1 OUTDOOR AIR NODE,OUTDOORAIR:MIXER,AIR LOOP HVAC OUTDOOR AIR SYSTEM 3 OUTDOOR AIR MIXER,Inlet,1
 Non-Parent Node Connection,SYS_3|MIXED|SHR>NONE|SC>DX|SH>C-E|SSF>CV|ZH>B-E|ZC>NONE|SRF>NONE| 1 RELIEF AIR NODE,OUTDOORAIR:MIXER,AIR LOOP HVAC OUTDOOR AIR SYSTEM 3 OUTDOOR AIR MIXER,ReliefAir,1
 Non-Parent Node Connection,SYS3 RETURN FAN 1 OUTLET AIR NODE,OUTDOORAIR:MIXER,AIR LOOP HVAC OUTDOOR AIR SYSTEM 3 OUTDOOR AIR MIXER,Inlet,1
 Non-Parent Node Connection,SYS_3|MIXED|SHR>NONE|SC>DX|SH>C-E|SSF>CV|ZH>B-E|ZC>NONE|SRF>NONE| 2 MIXED AIR NODE,OUTDOORAIR:MIXER,AIR LOOP HVAC OUTDOOR AIR SYSTEM 4 OUTDOOR AIR MIXER,Outlet,1
 Non-Parent Node Connection,SYS_3|MIXED|SHR>NONE|SC>DX|SH>C-E|SSF>CV|ZH>B-E|ZC>NONE|SRF>NONE| 2 OUTDOOR AIR NODE,OUTDOORAIR:MIXER,AIR LOOP HVAC OUTDOOR AIR SYSTEM 4 OUTDOOR AIR MIXER,Inlet,1
 Non-Parent Node Connection,SYS_3|MIXED|SHR>NONE|SC>DX|SH>C-E|SSF>CV|ZH>B-E|ZC>NONE|SRF>NONE| 2 RELIEF AIR NODE,OUTDOORAIR:MIXER,AIR LOOP HVAC OUTDOOR AIR SYSTEM 4 OUTDOOR AIR MIXER,ReliefAir,1
 Non-Parent Node Connection,SYS3 RETURN FAN 2 OUTLET AIR NODE,OUTDOORAIR:MIXER,AIR LOOP HVAC OUTDOOR AIR SYSTEM 4 OUTDOOR AIR MIXER,Inlet,1
 Non-Parent Node Connection,SYS_3|MIXED|SHR>NONE|SC>DX|SH>C-E|SSF>CV|ZH>B-E|ZC>NONE|SRF>NONE| 3 MIXED AIR NODE,OUTDOORAIR:MIXER,AIR LOOP HVAC OUTDOOR AIR SYSTEM 5 OUTDOOR AIR MIXER,Outlet,1
 Non-Parent Node Connection,SYS_3|MIXED|SHR>NONE|SC>DX|SH>C-E|SSF>CV|ZH>B-E|ZC>NONE|SRF>NONE| 3 OUTDOOR AIR NODE,OUTDOORAIR:MIXER,AIR LOOP HVAC OUTDOOR AIR SYSTEM 5 OUTDOOR AIR MIXER,Inlet,1
 Non-Parent Node Connection,SYS_3|MIXED|SHR>NONE|SC>DX|SH>C-E|SSF>CV|ZH>B-E|ZC>NONE|SRF>NONE| 3 RELIEF AIR NODE,OUTDOORAIR:MIXER,AIR LOOP HVAC OUTDOOR AIR SYSTEM 5 OUTDOOR AIR MIXER,ReliefAir,1
 Non-Parent Node Connection,SYS3 RETURN FAN 3 OUTLET AIR NODE,OUTDOORAIR:MIXER,AIR LOOP HVAC OUTDOOR AIR SYSTEM 5 OUTDOOR AIR MIXER,Inlet,1
 Non-Parent Node Connection,SYS_4|MIXED|SHR>NONE|SC>DX|SH>C-E|SSF>CV|ZH>B-E|ZC>NONE|SRF>NONE| MIXED AIR NODE,OUTDOORAIR:MIXER,AIR LOOP HVAC OUTDOOR AIR SYSTEM 1 OUTDOOR AIR MIXER,Outlet,1
 Non-Parent Node Connection,SYS_4|MIXED|SHR>NONE|SC>DX|SH>C-E|SSF>CV|ZH>B-E|ZC>NONE|SRF>NONE| OUTDOOR AIR NODE,OUTDOORAIR:MIXER,AIR LOOP HVAC OUTDOOR AIR SYSTEM 1 OUTDOOR AIR MIXER,Inlet,1
 Non-Parent Node Connection,SYS_4|MIXED|SHR>NONE|SC>DX|SH>C-E|SSF>CV|ZH>B-E|ZC>NONE|SRF>NONE| RELIEF AIR NODE,OUTDOORAIR:MIXER,AIR LOOP HVAC OUTDOOR AIR SYSTEM 1 OUTDOOR AIR MIXER,ReliefAir,1
 Non-Parent Node Connection,SYS_4|MIXED|SHR>NONE|SC>DX|SH>C-E|SSF>CV|ZH>B-E|ZC>NONE|SRF>NONE| SUPPLY INLET NODE,OUTDOORAIR:MIXER,AIR LOOP HVAC OUTDOOR AIR SYSTEM 1 OUTDOOR AIR MIXER,Inlet,1
 Non-Parent Node Connection,SYS_3|MIXED|SHR>NONE|SC>DX|SH>C-E|SSF>CV|ZH>B-E|ZC>NONE|SRF>NONE| MIXED AIR NODE,CONTROLLER:OUTDOORAIR,CONTROLLER OUTDOOR AIR 2,Sensor,1
 Non-Parent Node Connection,SYS_3|MIXED|SHR>NONE|SC>DX|SH>C-E|SSF>CV|ZH>B-E|ZC>NONE|SRF>NONE| OUTDOOR AIR NODE,CONTROLLER:OUTDOORAIR,CONTROLLER OUTDOOR AIR 2,Actuator,1
 Non-Parent Node Connection,SYS_3|MIXED|SHR>NONE|SC>DX|SH>C-E|SSF>CV|ZH>B-E|ZC>NONE|SRF>NONE| RELIEF AIR NODE,CONTROLLER:OUTDOORAIR,CONTROLLER OUTDOOR AIR 2,Actuator,1
 Non-Parent Node Connection,SYS3 RETURN FAN OUTLET AIR NODE,CONTROLLER:OUTDOORAIR,CONTROLLER OUTDOOR AIR 2,Sensor,1
 Non-Parent Node Connection,SYS_3|MIXED|SHR>NONE|SC>DX|SH>C-E|SSF>CV|ZH>B-E|ZC>NONE|SRF>NONE| 1 MIXED AIR NODE,CONTROLLER:OUTDOORAIR,CONTROLLER OUTDOOR AIR 3,Sensor,1
 Non-Parent Node Connection,SYS_3|MIXED|SHR>NONE|SC>DX|SH>C-E|SSF>CV|ZH>B-E|ZC>NONE|SRF>NONE| 1 OUTDOOR AIR NODE,CONTROLLER:OUTDOORAIR,CONTROLLER OUTDOOR AIR 3,Actuator,1
 Non-Parent Node Connection,SYS_3|MIXED|SHR>NONE|SC>DX|SH>C-E|SSF>CV|ZH>B-E|ZC>NONE|SRF>NONE| 1 RELIEF AIR NODE,CONTROLLER:OUTDOORAIR,CONTROLLER OUTDOOR AIR 3,Actuator,1
 Non-Parent Node Connection,SYS3 RETURN FAN 1 OUTLET AIR NODE,CONTROLLER:OUTDOORAIR,CONTROLLER OUTDOOR AIR 3,Sensor,1
 Non-Parent Node Connection,SYS_3|MIXED|SHR>NONE|SC>DX|SH>C-E|SSF>CV|ZH>B-E|ZC>NONE|SRF>NONE| 2 MIXED AIR NODE,CONTROLLER:OUTDOORAIR,CONTROLLER OUTDOOR AIR 4,Sensor,1
 Non-Parent Node Connection,SYS_3|MIXED|SHR>NONE|SC>DX|SH>C-E|SSF>CV|ZH>B-E|ZC>NONE|SRF>NONE| 2 OUTDOOR AIR NODE,CONTROLLER:OUTDOORAIR,CONTROLLER OUTDOOR AIR 4,Actuator,1
 Non-Parent Node Connection,SYS_3|MIXED|SHR>NONE|SC>DX|SH>C-E|SSF>CV|ZH>B-E|ZC>NONE|SRF>NONE| 2 RELIEF AIR NODE,CONTROLLER:OUTDOORAIR,CONTROLLER OUTDOOR AIR 4,Actuator,1
 Non-Parent Node Connection,SYS3 RETURN FAN 2 OUTLET AIR NODE,CONTROLLER:OUTDOORAIR,CONTROLLER OUTDOOR AIR 4,Sensor,1
 Non-Parent Node Connection,SYS_3|MIXED|SHR>NONE|SC>DX|SH>C-E|SSF>CV|ZH>B-E|ZC>NONE|SRF>NONE| 3 MIXED AIR NODE,CONTROLLER:OUTDOORAIR,CONTROLLER OUTDOOR AIR 5,Sensor,1
 Non-Parent Node Connection,SYS_3|MIXED|SHR>NONE|SC>DX|SH>C-E|SSF>CV|ZH>B-E|ZC>NONE|SRF>NONE| 3 OUTDOOR AIR NODE,CONTROLLER:OUTDOORAIR,CONTROLLER OUTDOOR AIR 5,Actuator,1
 Non-Parent Node Connection,SYS_3|MIXED|SHR>NONE|SC>DX|SH>C-E|SSF>CV|ZH>B-E|ZC>NONE|SRF>NONE| 3 RELIEF AIR NODE,CONTROLLER:OUTDOORAIR,CONTROLLER OUTDOOR AIR 5,Actuator,1
 Non-Parent Node Connection,SYS3 RETURN FAN 3 OUTLET AIR NODE,CONTROLLER:OUTDOORAIR,CONTROLLER OUTDOOR AIR 5,Sensor,1
 Non-Parent Node Connection,SYS_4|MIXED|SHR>NONE|SC>DX|SH>C-E|SSF>CV|ZH>B-E|ZC>NONE|SRF>NONE| MIXED AIR NODE,CONTROLLER:OUTDOORAIR,CONTROLLER OUTDOOR AIR 1,Sensor,1
 Non-Parent Node Connection,SYS_4|MIXED|SHR>NONE|SC>DX|SH>C-E|SSF>CV|ZH>B-E|ZC>NONE|SRF>NONE| OUTDOOR AIR NODE,CONTROLLER:OUTDOORAIR,CONTROLLER OUTDOOR AIR 1,Actuator,1
 Non-Parent Node Connection,SYS_4|MIXED|SHR>NONE|SC>DX|SH>C-E|SSF>CV|ZH>B-E|ZC>NONE|SRF>NONE| RELIEF AIR NODE,CONTROLLER:OUTDOORAIR,CONTROLLER OUTDOOR AIR 1,Actuator,1
 Non-Parent Node Connection,SYS_4|MIXED|SHR>NONE|SC>DX|SH>C-E|SSF>CV|ZH>B-E|ZC>NONE|SRF>NONE| SUPPLY INLET NODE,CONTROLLER:OUTDOORAIR,CONTROLLER OUTDOOR AIR 1,Sensor,1
 Non-Parent Node Connection,SYS_3|MIXED|SHR>NONE|SC>DX|SH>C-E|SSF>CV|ZH>B-E|ZC>NONE|SRF>NONE| MIXED AIR NODE,COIL:COOLING:DX:SINGLESPEED,COILCOOLINGDXSINGLESPEED_DX 1 58KBTU/HR 7.7726EER,Inlet,1
 Non-Parent Node Connection,COILCOOLINGDXSINGLESPEED_DX 1 58KBTU/HR 7.7726EER OUTLET AIR NODE,COIL:COOLING:DX:SINGLESPEED,COILCOOLINGDXSINGLESPEED_DX 1 58KBTU/HR 7.7726EER,Outlet,1
 Non-Parent Node Connection,SYS_3|MIXED|SHR>NONE|SC>DX|SH>C-E|SSF>CV|ZH>B-E|ZC>NONE|SRF>NONE| 1 MIXED AIR NODE,COIL:COOLING:DX:SINGLESPEED,COILCOOLINGDXSINGLESPEED_DX 2 58KBTU/HR 7.7726EER,Inlet,1
 Non-Parent Node Connection,COILCOOLINGDXSINGLESPEED_DX 2 58KBTU/HR 7.7726EER OUTLET AIR NODE,COIL:COOLING:DX:SINGLESPEED,COILCOOLINGDXSINGLESPEED_DX 2 58KBTU/HR 7.7726EER,Outlet,1
 Non-Parent Node Connection,SYS_3|MIXED|SHR>NONE|SC>DX|SH>C-E|SSF>CV|ZH>B-E|ZC>NONE|SRF>NONE| 2 MIXED AIR NODE,COIL:COOLING:DX:SINGLESPEED,COILCOOLINGDXSINGLESPEED_DX 3 10KBTU/HR 7.7726EER,Inlet,1
 Non-Parent Node Connection,COILCOOLINGDXSINGLESPEED_DX 3 10KBTU/HR 7.7726EER OUTLET AIR NODE,COIL:COOLING:DX:SINGLESPEED,COILCOOLINGDXSINGLESPEED_DX 3 10KBTU/HR 7.7726EER,Outlet,1
 Non-Parent Node Connection,SYS_3|MIXED|SHR>NONE|SC>DX|SH>C-E|SSF>CV|ZH>B-E|ZC>NONE|SRF>NONE| 3 MIXED AIR NODE,COIL:COOLING:DX:SINGLESPEED,COILCOOLINGDXSINGLESPEED_DX 4 235KBTU/HR 7.7726EER,Inlet,1
 Non-Parent Node Connection,COILCOOLINGDXSINGLESPEED_DX 4 235KBTU/HR 7.7726EER OUTLET AIR NODE,COIL:COOLING:DX:SINGLESPEED,COILCOOLINGDXSINGLESPEED_DX 4 235KBTU/HR 7.7726EER,Outlet,1
 Non-Parent Node Connection,SYS_4|MIXED|SHR>NONE|SC>DX|SH>C-E|SSF>CV|ZH>B-E|ZC>NONE|SRF>NONE| MIXED AIR NODE,COIL:COOLING:DX:SINGLESPEED,COILCOOLINGDXSINGLESPEED_DX 18KBTU/HR 7.7726EER,Inlet,1
 Non-Parent Node Connection,COILCOOLINGDXSINGLESPEED_DX 18KBTU/HR 7.7726EER OUTLET AIR NODE,COIL:COOLING:DX:SINGLESPEED,COILCOOLINGDXSINGLESPEED_DX 18KBTU/HR 7.7726EER,Outlet,1
 Non-Parent Node Connection,COILCOOLINGDXSINGLESPEED_DX 1 58KBTU/HR 7.7726EER OUTLET AIR NODE,COIL:HEATING:ELECTRIC,COIL HEATING ELECTRIC 2,Inlet,1
 Non-Parent Node Connection,COIL HEATING ELECTRIC 2 OUTLET AIR NODE,COIL:HEATING:ELECTRIC,COIL HEATING ELECTRIC 2,Outlet,1
 Non-Parent Node Connection,COIL HEATING ELECTRIC 2 OUTLET AIR NODE,COIL:HEATING:ELECTRIC,COIL HEATING ELECTRIC 2,Sensor,1
 Non-Parent Node Connection,COILCOOLINGDXSINGLESPEED_DX 2 58KBTU/HR 7.7726EER OUTLET AIR NODE,COIL:HEATING:ELECTRIC,COIL HEATING ELECTRIC 3,Inlet,1
 Non-Parent Node Connection,COIL HEATING ELECTRIC 3 OUTLET AIR NODE,COIL:HEATING:ELECTRIC,COIL HEATING ELECTRIC 3,Outlet,1
 Non-Parent Node Connection,COIL HEATING ELECTRIC 3 OUTLET AIR NODE,COIL:HEATING:ELECTRIC,COIL HEATING ELECTRIC 3,Sensor,1
 Non-Parent Node Connection,COILCOOLINGDXSINGLESPEED_DX 3 10KBTU/HR 7.7726EER OUTLET AIR NODE,COIL:HEATING:ELECTRIC,COIL HEATING ELECTRIC 4,Inlet,1
 Non-Parent Node Connection,COIL HEATING ELECTRIC 4 OUTLET AIR NODE,COIL:HEATING:ELECTRIC,COIL HEATING ELECTRIC 4,Outlet,1
 Non-Parent Node Connection,COIL HEATING ELECTRIC 4 OUTLET AIR NODE,COIL:HEATING:ELECTRIC,COIL HEATING ELECTRIC 4,Sensor,1
 Non-Parent Node Connection,COILCOOLINGDXSINGLESPEED_DX 4 235KBTU/HR 7.7726EER OUTLET AIR NODE,COIL:HEATING:ELECTRIC,COIL HEATING ELECTRIC 5,Inlet,1
 Non-Parent Node Connection,COIL HEATING ELECTRIC 5 OUTLET AIR NODE,COIL:HEATING:ELECTRIC,COIL HEATING ELECTRIC 5,Outlet,1
 Non-Parent Node Connection,COIL HEATING ELECTRIC 5 OUTLET AIR NODE,COIL:HEATING:ELECTRIC,COIL HEATING ELECTRIC 5,Sensor,1
 Non-Parent Node Connection,COILCOOLINGDXSINGLESPEED_DX 18KBTU/HR 7.7726EER OUTLET AIR NODE,COIL:HEATING:ELECTRIC,COIL HEATING ELECTRIC 1,Inlet,1
 Non-Parent Node Connection,COIL HEATING ELECTRIC 1 OUTLET AIR NODE,COIL:HEATING:ELECTRIC,COIL HEATING ELECTRIC 1,Outlet,1
 Non-Parent Node Connection,COIL HEATING ELECTRIC 1 OUTLET AIR NODE,COIL:HEATING:ELECTRIC,COIL HEATING ELECTRIC 1,Sensor,1
 Non-Parent Node Connection,MAIN SERVICE WATER LOOP SUPPLY INLET NODE,PUMP:CONSTANTSPEED,MAIN SERVICE WATER LOOP CIRCULATOR PUMP,Inlet,1
 Non-Parent Node Connection,MAIN SERVICE WATER LOOP CIRCULATOR PUMP OUTLET WATER NODE,PUMP:CONSTANTSPEED,MAIN SERVICE WATER LOOP CIRCULATOR PUMP,Outlet,1
